ligand_12


 28 32  0  0  0  0  0  0  0  0999 V2000
  -54.1685    1.5011   70.8992 C   0  0  0  0  0  0  0  0  0  0  0  0
  -53.5162    0.1876   70.4617 C   0  0  0  0  0  0  0  0  0  0  0  0
  -53.6082   -0.8749   71.5939 C   0  0  0  0  0  0  0  0  0  0  0  0
  -52.8234   -2.0312   71.0379 C   0  0  0  0  0  0  0  0  0  0  0  0
  -52.5447   -1.6164   69.6582 O   0  0  0  0  0  0  0  0  0  0  0  0
  -52.2847   -0.1187   69.2546 C   0  0  0  0  0  0  0  0  0  0  0  0
  -52.4127    0.6214   68.2543 O   0  0  0  0  0  0  0  0  0  0  0  0
  -51.6726    0.4041   70.3160 C   0  0  0  0  0  0  0  0  0  0  0  0
  -50.6326   -0.5749   69.1100 C   0  0  0  0  0  0  0  0  0  0  0  0
  -51.5265   -1.4637   67.6997 C   0  0  0  0  0  0  0  0  0  0  0  0
  -53.3956   -1.3884   67.6094 C   0  0  0  0  0  0  0  0  0  0  0  0
  -54.3930   -0.4575   68.8861 C   0  0  0  0  0  0  0  0  0  0  0  0
  -55.7906   -1.0546   69.0827 C   0  0  0  0  0  0  0  0  0  0  0  0
  -55.9504   -2.4993   68.6043 C   0  0  0  0  0  0  0  0  0  0  0  0
  -55.0949   -3.3802   69.3413 O   0  0  0  0  0  0  0  0  0  0  0  0
  -54.0003   -3.6680   68.5548 C   0  0  0  0  0  0  0  0  0  0  0  0
  -53.1654   -4.5119   68.8233 O   0  0  0  0  0  0  0  0  0  0  0  0
  -54.0157   -2.7791   67.3174 C   0  0  0  0  0  0  0  0  0  0  0  0
  -53.4241   -3.3510   66.1613 O   0  0  0  0  0  0  0  0  0  0  0  0
  -55.5320   -2.7494   67.1660 C   0  0  0  0  0  0  0  0  0  0  0  0
  -56.0268   -1.8102   66.2324 O   0  0  0  0  0  0  0  0  0  0  0  0
  -52.5474   -3.6843   66.4335 H   0  0  0  0  0  0  0  0  0  0  0  0
  -55.7185   -2.1219   65.3586 H   0  0  0  0  0  0  0  0  0  0  0  0
  -51.6013   -2.6096   71.6746 C   0  0  0  0  0  0  0  0  0  0  0  0
  -50.4682   -3.2845   71.1369 C   0  0  0  0  0  0  0  0  0  0  0  0
  -49.7545   -3.7742   72.2080 C   0  0  0  0  0  0  0  0  0  0  0  0
  -50.3135   -3.3731   73.3736 O   0  0  0  0  0  0  0  0  0  0  0  0
  -51.4148   -2.6586   73.0484 C   0  0  0  0  0  0  0  0  0  0  0  0
  1  2  1  0  0  0
  2  3  1  0  0  0
  3  4  1  0  0  0
  4 24  1  0  0  0
 24 25  1  0  0  0
 25 26  2  0  0  0
 26 27  1  0  0  0
 27 28  1  0  0  0
 24 28  2  0  0  0
  4  5  1  0  0  0
  5  6  1  0  0  0
  6  7  2  0  0  0
  6  8  1  0  0  0
  2  8  1  0  0  0
  8  9  1  0  0  0
  9 10  1  0  0  0
 10 11  1  0  0  0
 11 12  1  0  0  0
  2 12  1  0  0  0
 12 13  1  0  0  0
 13 14  1  0  0  0
 14 15  1  0  0  0
 15 16  1  0  0  0
 16 17  2  0  0  0
 16 18  1  0  0  0
 11 18  1  0  0  0
 18 19  1  0  0  0
 18 20  1  0  0  0
 14 20  1  0  0  0
 20 21  1  0  0  0
 19 22  1  0  0  0
 21 23  1  0  0  0
M  END
> <minimizedAffinity>
-8.27897

$$$$
ligand_12


 28 32  0  0  0  0  0  0  0  0999 V2000
  -49.8834    0.3951   68.1038 C   0  0  0  0  0  0  0  0  0  0  0  0
  -50.9503   -0.4792   68.7667 C   0  0  0  0  0  0  0  0  0  0  0  0
  -51.1587   -1.7949   67.9638 C   0  0  0  0  0  0  0  0  0  0  0  0
  -52.3047   -2.4525   68.6824 C   0  0  0  0  0  0  0  0  0  0  0  0
  -52.4966   -1.5996   69.8611 O   0  0  0  0  0  0  0  0  0  0  0  0
  -52.2697   -0.0436   69.8331 C   0  0  0  0  0  0  0  0  0  0  0  0
  -51.9533    0.8748   70.6213 O   0  0  0  0  0  0  0  0  0  0  0  0
  -52.6256    0.3164   68.6009 C   0  0  0  0  0  0  0  0  0  0  0  0
  -53.9848    0.0816   69.8626 C   0  0  0  0  0  0  0  0  0  0  0  0
  -53.4995   -0.5977   71.5599 C   0  0  0  0  0  0  0  0  0  0  0  0
  -51.7156   -1.0686   71.8814 C   0  0  0  0  0  0  0  0  0  0  0  0
  -50.4090   -0.8848   70.5583 C   0  0  0  0  0  0  0  0  0  0  0  0
  -49.2770   -1.9064   70.7111 C   0  0  0  0  0  0  0  0  0  0  0  0
  -49.6227   -3.1339   71.5568 C   0  0  0  0  0  0  0  0  0  0  0  0
  -50.6841   -3.8859   70.9577 O   0  0  0  0  0  0  0  0  0  0  0  0
  -51.8483   -3.5940   71.6352 C   0  0  0  0  0  0  0  0  0  0  0  0
  -52.9002   -4.1858   71.4782 O   0  0  0  0  0  0  0  0  0  0  0  0
  -51.6005   -2.4390   72.5974 C   0  0  0  0  0  0  0  0  0  0  0  0
  -52.4009   -2.4529   73.7691 O   0  0  0  0  0  0  0  0  0  0  0  0
  -50.1673   -2.8273   72.9410 C   0  0  0  0  0  0  0  0  0  0  0  0
  -49.4364   -1.8575   73.6646 O   0  0  0  0  0  0  0  0  0  0  0  0
  -53.3245   -2.5684   73.4737 H   0  0  0  0  0  0  0  0  0  0  0  0
  -49.8708   -1.8003   74.5386 H   0  0  0  0  0  0  0  0  0  0  0  0
  -53.6174   -2.7900   68.0529 C   0  0  0  0  0  0  0  0  0  0  0  0
  -54.0174   -2.9468   66.6950 C   0  0  0  0  0  0  0  0  0  0  0  0
  -55.3902   -3.0550   66.6970 C   0  0  0  0  0  0  0  0  0  0  0  0
  -55.8629   -3.0691   67.9652 O   0  0  0  0  0  0  0  0  0  0  0  0
  -54.7917   -2.9264   68.7786 C   0  0  0  0  0  0  0  0  0  0  0  0
  1  2  1  0  0  0
  2  3  1  0  0  0
  3  4  1  0  0  0
  4 24  1  0  0  0
 24 25  1  0  0  0
 25 26  2  0  0  0
 26 27  1  0  0  0
 27 28  1  0  0  0
 24 28  2  0  0  0
  4  5  1  0  0  0
  5  6  1  0  0  0
  6  7  2  0  0  0
  6  8  1  0  0  0
  2  8  1  0  0  0
  8  9  1  0  0  0
  9 10  1  0  0  0
 10 11  1  0  0  0
 11 12  1  0  0  0
  2 12  1  0  0  0
 12 13  1  0  0  0
 13 14  1  0  0  0
 14 15  1  0  0  0
 15 16  1  0  0  0
 16 17  2  0  0  0
 16 18  1  0  0  0
 11 18  1  0  0  0
 18 19  1  0  0  0
 18 20  1  0  0  0
 14 20  1  0  0  0
 20 21  1  0  0  0
 19 22  1  0  0  0
 21 23  1  0  0  0
M  END
> <minimizedAffinity>
-8.25526

$$$$
ligand_12


 28 32  0  0  0  0  0  0  0  0999 V2000
  -49.6748   -1.9051   68.7754 C   0  0  0  0  0  0  0  0  0  0  0  0
  -51.1167   -1.9709   69.2839 C   0  0  0  0  0  0  0  0  0  0  0  0
  -51.8627   -3.1867   68.6639 C   0  0  0  0  0  0  0  0  0  0  0  0
  -53.2676   -3.0181   69.1737 C   0  0  0  0  0  0  0  0  0  0  0  0
  -53.1489   -1.9085   70.1267 O   0  0  0  0  0  0  0  0  0  0  0  0
  -52.1528   -0.7093   69.9187 C   0  0  0  0  0  0  0  0  0  0  0  0
  -51.5176    0.1164   70.6112 O   0  0  0  0  0  0  0  0  0  0  0  0
  -52.1048   -0.5500   68.5970 C   0  0  0  0  0  0  0  0  0  0  0  0
  -53.5454    0.2140   69.5110 C   0  0  0  0  0  0  0  0  0  0  0  0
  -53.7101   -0.1581   71.3582 C   0  0  0  0  0  0  0  0  0  0  0  0
  -52.4837   -1.3167   72.1714 C   0  0  0  0  0  0  0  0  0  0  0  0
  -51.1057   -2.1144   71.1935 C   0  0  0  0  0  0  0  0  0  0  0  0
  -50.6924   -3.4727   71.7703 C   0  0  0  0  0  0  0  0  0  0  0  0
  -51.7293   -4.1310   72.6830 C   0  0  0  0  0  0  0  0  0  0  0  0
  -52.9353   -4.4163   71.9652 O   0  0  0  0  0  0  0  0  0  0  0  0
  -53.8619   -3.4481   72.2869 C   0  0  0  0  0  0  0  0  0  0  0  0
  -55.0365   -3.4906   71.9707 O   0  0  0  0  0  0  0  0  0  0  0  0
  -53.1864   -2.3461   73.0935 C   0  0  0  0  0  0  0  0  0  0  0  0
  -54.0280   -1.6825   74.0237 O   0  0  0  0  0  0  0  0  0  0  0  0
  -52.2178   -3.2638   73.8301 C   0  0  0  0  0  0  0  0  0  0  0  0
  -51.1964   -2.6068   74.5537 O   0  0  0  0  0  0  0  0  0  0  0  0
  -54.8305   -1.4187   73.5336 H   0  0  0  0  0  0  0  0  0  0  0  0
  -51.6515   -2.1316   75.2767 H   0  0  0  0  0  0  0  0  0  0  0  0
  -54.4694   -2.8426   68.3028 C   0  0  0  0  0  0  0  0  0  0  0  0
  -54.6206   -2.7126   66.8925 C   0  0  0  0  0  0  0  0  0  0  0  0
  -55.9352   -2.3710   66.6656 C   0  0  0  0  0  0  0  0  0  0  0  0
  -56.6320   -2.3699   67.8260 O   0  0  0  0  0  0  0  0  0  0  0  0
  -55.7503   -2.6706   68.8065 C   0  0  0  0  0  0  0  0  0  0  0  0
  1  2  1  0  0  0
  2  3  1  0  0  0
  3  4  1  0  0  0
  4 24  1  0  0  0
 24 25  1  0  0  0
 25 26  2  0  0  0
 26 27  1  0  0  0
 27 28  1  0  0  0
 24 28  2  0  0  0
  4  5  1  0  0  0
  5  6  1  0  0  0
  6  7  2  0  0  0
  6  8  1  0  0  0
  2  8  1  0  0  0
  8  9  1  0  0  0
  9 10  1  0  0  0
 10 11  1  0  0  0
 11 12  1  0  0  0
  2 12  1  0  0  0
 12 13  1  0  0  0
 13 14  1  0  0  0
 14 15  1  0  0  0
 15 16  1  0  0  0
 16 17  2  0  0  0
 16 18  1  0  0  0
 11 18  1  0  0  0
 18 19  1  0  0  0
 18 20  1  0  0  0
 14 20  1  0  0  0
 20 21  1  0  0  0
 19 22  1  0  0  0
 21 23  1  0  0  0
M  END
> <minimizedAffinity>
-7.94773

$$$$
ligand_12


 28 32  0  0  0  0  0  0  0  0999 V2000
  -50.1977    0.5934   68.5068 C   0  0  0  0  0  0  0  0  0  0  0  0
  -51.1051   -0.4875   69.0986 C   0  0  0  0  0  0  0  0  0  0  0  0
  -51.3170   -0.2534   70.6215 C   0  0  0  0  0  0  0  0  0  0  0  0
  -52.1157   -1.4566   71.0415 C   0  0  0  0  0  0  0  0  0  0  0  0
  -52.4266   -2.1154   69.7677 O   0  0  0  0  0  0  0  0  0  0  0  0
  -51.4379   -2.1155   68.5446 C   0  0  0  0  0  0  0  0  0  0  0  0
  -51.4859   -2.1866   67.2966 O   0  0  0  0  0  0  0  0  0  0  0  0
  -50.2282   -2.1301   69.1024 C   0  0  0  0  0  0  0  0  0  0  0  0
  -51.1332   -3.7588   68.9506 C   0  0  0  0  0  0  0  0  0  0  0  0
  -52.9166   -3.7171   68.3219 C   0  0  0  0  0  0  0  0  0  0  0  0
  -53.7175   -2.0655   67.9497 C   0  0  0  0  0  0  0  0  0  0  0  0
  -52.7916   -0.4607   68.1916 C   0  0  0  0  0  0  0  0  0  0  0  0
  -53.7260    0.7061   68.5294 C   0  0  0  0  0  0  0  0  0  0  0  0
  -55.1018    0.3003   69.0624 C   0  0  0  0  0  0  0  0  0  0  0  0
  -54.9819   -0.4117   70.2992 O   0  0  0  0  0  0  0  0  0  0  0  0
  -55.1367   -1.7553   70.0343 C   0  0  0  0  0  0  0  0  0  0  0  0
  -55.2479   -2.6147   70.8890 O   0  0  0  0  0  0  0  0  0  0  0  0
  -55.1537   -1.9776   68.5271 C   0  0  0  0  0  0  0  0  0  0  0  0
  -55.9292   -3.0839   68.0931 O   0  0  0  0  0  0  0  0  0  0  0  0
  -55.8678   -0.6751   68.1858 C   0  0  0  0  0  0  0  0  0  0  0  0
  -55.8938   -0.3434   66.8118 O   0  0  0  0  0  0  0  0  0  0  0  0
  -55.6485   -3.8487   68.6317 H   0  0  0  0  0  0  0  0  0  0  0  0
  -56.4522   -1.0250   66.3882 H   0  0  0  0  0  0  0  0  0  0  0  0
  -51.6704   -2.4554   72.0601 C   0  0  0  0  0  0  0  0  0  0  0  0
  -52.2592   -3.6585   72.5443 C   0  0  0  0  0  0  0  0  0  0  0  0
  -51.5059   -4.0604   73.6248 C   0  0  0  0  0  0  0  0  0  0  0  0
  -50.4389   -3.2440   73.7890 O   0  0  0  0  0  0  0  0  0  0  0  0
  -50.5321   -2.2895   72.8353 C   0  0  0  0  0  0  0  0  0  0  0  0
  1  2  1  0  0  0
  2  3  1  0  0  0
  3  4  1  0  0  0
  4 24  1  0  0  0
 24 25  1  0  0  0
 25 26  2  0  0  0
 26 27  1  0  0  0
 27 28  1  0  0  0
 24 28  2  0  0  0
  4  5  1  0  0  0
  5  6  1  0  0  0
  6  7  2  0  0  0
  6  8  1  0  0  0
  2  8  1  0  0  0
  8  9  1  0  0  0
  9 10  1  0  0  0
 10 11  1  0  0  0
 11 12  1  0  0  0
  2 12  1  0  0  0
 12 13  1  0  0  0
 13 14  1  0  0  0
 14 15  1  0  0  0
 15 16  1  0  0  0
 16 17  2  0  0  0
 16 18  1  0  0  0
 11 18  1  0  0  0
 18 19  1  0  0  0
 18 20  1  0  0  0
 14 20  1  0  0  0
 20 21  1  0  0  0
 19 22  1  0  0  0
 21 23  1  0  0  0
M  END
> <minimizedAffinity>
-7.70344

$$$$
ligand_12


 28 32  0  0  0  0  0  0  0  0999 V2000
  -49.9712   -1.6588   71.6128 C   0  0  0  0  0  0  0  0  0  0  0  0
  -51.4194   -1.7866   71.1348 C   0  0  0  0  0  0  0  0  0  0  0  0
  -51.6509   -3.1613   70.4451 C   0  0  0  0  0  0  0  0  0  0  0  0
  -53.0650   -3.0553   69.9443 C   0  0  0  0  0  0  0  0  0  0  0  0
  -53.5348   -1.7931   70.5271 O   0  0  0  0  0  0  0  0  0  0  0  0
  -52.5948   -0.5500   70.7383 C   0  0  0  0  0  0  0  0  0  0  0  0
  -52.5047    0.4433   71.4933 O   0  0  0  0  0  0  0  0  0  0  0  0
  -51.7349   -0.6144   69.7229 C   0  0  0  0  0  0  0  0  0  0  0  0
  -53.4129    0.1402   69.3920 C   0  0  0  0  0  0  0  0  0  0  0  0
  -54.6949    0.0737   70.7811 C   0  0  0  0  0  0  0  0  0  0  0  0
  -54.2641   -0.7951   72.3834 C   0  0  0  0  0  0  0  0  0  0  0  0
  -52.5966   -1.6001   72.6338 C   0  0  0  0  0  0  0  0  0  0  0  0
  -52.6625   -2.7896   73.5978 C   0  0  0  0  0  0  0  0  0  0  0  0
  -54.0576   -3.3868   73.7946 C   0  0  0  0  0  0  0  0  0  0  0  0
  -54.5668   -3.9144   72.5643 O   0  0  0  0  0  0  0  0  0  0  0  0
  -55.4696   -3.0072   72.0529 C   0  0  0  0  0  0  0  0  0  0  0  0
  -56.1968   -3.2250   71.1015 O   0  0  0  0  0  0  0  0  0  0  0  0
  -55.4118   -1.7195   72.8651 C   0  0  0  0  0  0  0  0  0  0  0  0
  -56.6320   -0.9981   72.9324 O   0  0  0  0  0  0  0  0  0  0  0  0
  -55.1300   -2.3921   74.2034 C   0  0  0  0  0  0  0  0  0  0  0  0
  -54.7603   -1.5187   75.2516 O   0  0  0  0  0  0  0  0  0  0  0  0
  -56.9520   -0.9067   72.0143 H   0  0  0  0  0  0  0  0  0  0  0  0
  -55.5535   -0.9771   75.4336 H   0  0  0  0  0  0  0  0  0  0  0  0
  -53.4648   -3.1570   68.5078 C   0  0  0  0  0  0  0  0  0  0  0  0
  -54.7064   -2.9506   67.8413 C   0  0  0  0  0  0  0  0  0  0  0  0
  -54.5369   -3.3856   66.5457 C   0  0  0  0  0  0  0  0  0  0  0  0
  -53.2536   -3.7612   66.3357 O   0  0  0  0  0  0  0  0  0  0  0  0
  -52.6077   -3.6063   67.5139 C   0  0  0  0  0  0  0  0  0  0  0  0
  1  2  1  0  0  0
  2  3  1  0  0  0
  3  4  1  0  0  0
  4 24  1  0  0  0
 24 25  1  0  0  0
 25 26  2  0  0  0
 26 27  1  0  0  0
 27 28  1  0  0  0
 24 28  2  0  0  0
  4  5  1  0  0  0
  5  6  1  0  0  0
  6  7  2  0  0  0
  6  8  1  0  0  0
  2  8  1  0  0  0
  8  9  1  0  0  0
  9 10  1  0  0  0
 10 11  1  0  0  0
 11 12  1  0  0  0
  2 12  1  0  0  0
 12 13  1  0  0  0
 13 14  1  0  0  0
 14 15  1  0  0  0
 15 16  1  0  0  0
 16 17  2  0  0  0
 16 18  1  0  0  0
 11 18  1  0  0  0
 18 19  1  0  0  0
 18 20  1  0  0  0
 14 20  1  0  0  0
 20 21  1  0  0  0
 19 22  1  0  0  0
 21 23  1  0  0  0
M  END
> <minimizedAffinity>
-7.49570

$$$$
