ligand_9


 32 35  0  0  0  0  0  0  0  0999 V2000
  -51.3947   -2.6489   73.4255 C   0  0  0  0  0  0  0  0  0  0  0  0
  -50.1459   -2.5143   72.7223 O   0  0  0  0  0  0  0  0  0  0  0  0
  -50.4053   -1.5890   71.6578 C   0  0  0  0  0  0  0  0  0  0  0  0
  -51.7642   -1.9931   71.1163 C   0  0  0  0  0  0  0  0  0  0  0  0
  -52.4612   -2.5727   72.3298 C   0  0  0  0  0  0  0  0  0  0  0  0
  -53.5764   -1.5994   72.6640 C   0  0  0  0  0  0  0  0  0  0  0  0
  -53.4128   -0.4555   71.8175 O   0  0  0  0  0  0  0  0  0  0  0  0
  -52.6353   -0.8322   70.6671 C   0  0  0  0  0  0  0  0  0  0  0  0
  -52.6453   -5.7517   75.2757 C   0  0  0  0  0  0  0  0  0  0  0  0
  -52.5904   -4.5533   74.5441 C   0  0  0  0  0  0  0  0  0  0  0  0
  -51.3858   -3.8666   74.3260 C   0  0  0  0  0  0  0  0  0  0  0  0
  -50.2282   -4.4127   74.8895 C   0  0  0  0  0  0  0  0  0  0  0  0
  -50.2512   -5.5929   75.6477 C   0  0  0  0  0  0  0  0  0  0  0  0
  -51.4650   -6.2736   75.8239 C   0  0  0  0  0  0  0  0  0  0  0  0
  -51.4859   -7.4799   76.4671 O   0  0  0  0  0  0  0  0  0  0  0  0
  -50.7530   -7.9927   76.0892 H   0  0  0  0  0  0  0  0  0  0  0  0
  -55.0174   -5.4091   75.4366 C   0  0  0  0  0  0  0  0  0  0  0  0
  -53.9087   -6.2833   75.2997 O   0  0  0  0  0  0  0  0  0  0  0  0
  -49.0019   -5.9676   76.0658 O   0  0  0  0  0  0  0  0  0  0  0  0
  -48.3952   -5.2784   77.1493 C   0  0  0  0  0  0  0  0  0  0  0  0
  -53.5853   -1.1328   69.5156 C   0  0  0  0  0  0  0  0  0  0  0  0
  -54.7170   -0.3388   69.2502 C   0  0  0  0  0  0  0  0  0  0  0  0
  -55.5294   -0.5908   68.1458 C   0  0  0  0  0  0  0  0  0  0  0  0
  -55.2310   -1.6786   67.3181 C   0  0  0  0  0  0  0  0  0  0  0  0
  -56.0440   -1.9271   66.2377 O   0  0  0  0  0  0  0  0  0  0  0  0
  -54.1279   -2.5030   67.5620 C   0  0  0  0  0  0  0  0  0  0  0  0
  -53.3030   -2.2115   68.6540 C   0  0  0  0  0  0  0  0  0  0  0  0
  -56.7209   -1.2255   66.2613 H   0  0  0  0  0  0  0  0  0  0  0  0
  -56.6309    0.1420   67.7780 O   0  0  0  0  0  0  0  0  0  0  0  0
  -56.5247    1.5568   67.8994 C   0  0  0  0  0  0  0  0  0  0  0  0
  -53.9356   -3.5349   66.6827 O   0  0  0  0  0  0  0  0  0  0  0  0
  -52.6450   -4.1242   66.6363 C   0  0  0  0  0  0  0  0  0  0  0  0
 17 18  1  0  0  0
 18  9  1  0  0  0
  9 10  2  0  0  0
 10 11  1  0  0  0
  1  2  1  0  0  0
  2  3  1  0  0  0
  3  4  1  0  0  0
  4  5  1  0  0  0
  1  5  1  0  0  0
  5  6  1  0  0  0
  6  7  1  0  0  0
  7  8  1  0  0  0
  4  8  1  0  0  0
  8 21  1  0  0  0
 21 22  2  0  0  0
 22 23  1  0  0  0
 23 29  1  0  0  0
 29 30  1  0  0  0
 23 24  2  0  0  0
 24 25  1  0  0  0
 24 26  1  0  0  0
 26 31  1  0  0  0
 31 32  1  0  0  0
 26 27  2  0  0  0
 21 27  1  0  0  0
 11 12  2  0  0  0
 12 13  1  0  0  0
 13 19  1  0  0  0
 19 20  1  0  0  0
 13 14  2  0  0  0
  9 14  1  0  0  0
 14 15  1  0  0  0
  1 11  1  0  0  0
 25 28  1  0  0  0
 15 16  1  0  0  0
M  END
> <minimizedAffinity>
-7.61635

$$$$
ligand_9


 32 35  0  0  0  0  0  0  0  0999 V2000
  -51.2251   -4.1063   73.8605 C   0  0  0  0  0  0  0  0  0  0  0  0
  -49.8631   -3.6619   73.7206 O   0  0  0  0  0  0  0  0  0  0  0  0
  -49.0856   -4.5545   74.5301 C   0  0  0  0  0  0  0  0  0  0  0  0
  -49.9017   -4.7388   75.7963 C   0  0  0  0  0  0  0  0  0  0  0  0
  -51.3283   -4.5725   75.3151 C   0  0  0  0  0  0  0  0  0  0  0  0
  -51.9665   -5.9428   75.4476 C   0  0  0  0  0  0  0  0  0  0  0  0
  -50.9292   -6.8644   75.8034 O   0  0  0  0  0  0  0  0  0  0  0  0
  -49.8370   -6.1353   76.3912 C   0  0  0  0  0  0  0  0  0  0  0  0
  -52.7578   -1.3666   71.6789 C   0  0  0  0  0  0  0  0  0  0  0  0
  -51.8645   -2.2894   72.2486 C   0  0  0  0  0  0  0  0  0  0  0  0
  -52.1968   -3.0474   73.3823 C   0  0  0  0  0  0  0  0  0  0  0  0
  -53.4581   -2.8329   73.9469 C   0  0  0  0  0  0  0  0  0  0  0  0
  -54.3641   -1.9005   73.4196 C   0  0  0  0  0  0  0  0  0  0  0  0
  -54.0162   -1.1788   72.2681 C   0  0  0  0  0  0  0  0  0  0  0  0
  -54.9284   -0.3472   71.6802 O   0  0  0  0  0  0  0  0  0  0  0  0
  -55.7575   -0.8513   71.6410 H   0  0  0  0  0  0  0  0  0  0  0  0
  -50.8999   -0.3674   70.5302 C   0  0  0  0  0  0  0  0  0  0  0  0
  -52.2520   -0.7958   70.5397 O   0  0  0  0  0  0  0  0  0  0  0  0
  -55.5514   -1.8848   74.1021 O   0  0  0  0  0  0  0  0  0  0  0  0
  -55.6440   -2.5526   75.3522 C   0  0  0  0  0  0  0  0  0  0  0  0
  -49.9636   -6.2086   77.9069 C   0  0  0  0  0  0  0  0  0  0  0  0
  -49.2947   -5.3101   78.7597 C   0  0  0  0  0  0  0  0  0  0  0  0
  -49.4854   -5.3514   80.1399 C   0  0  0  0  0  0  0  0  0  0  0  0
  -50.3241   -6.3325   80.6800 C   0  0  0  0  0  0  0  0  0  0  0  0
  -50.4976   -6.3734   82.0431 O   0  0  0  0  0  0  0  0  0  0  0  0
  -50.9886   -7.2560   79.8668 C   0  0  0  0  0  0  0  0  0  0  0  0
  -50.8135   -7.1749   78.4808 C   0  0  0  0  0  0  0  0  0  0  0  0
  -49.9608   -5.6372   82.3908 H   0  0  0  0  0  0  0  0  0  0  0  0
  -48.9121   -4.5014   81.0533 O   0  0  0  0  0  0  0  0  0  0  0  0
  -47.8780   -3.6500   80.5701 C   0  0  0  0  0  0  0  0  0  0  0  0
  -51.7839   -8.1674   80.5084 O   0  0  0  0  0  0  0  0  0  0  0  0
  -51.2033   -9.4163   80.8523 C   0  0  0  0  0  0  0  0  0  0  0  0
 17 18  1  0  0  0
 18  9  1  0  0  0
  9 10  2  0  0  0
 10 11  1  0  0  0
  1  2  1  0  0  0
  2  3  1  0  0  0
  3  4  1  0  0  0
  4  5  1  0  0  0
  1  5  1  0  0  0
  5  6  1  0  0  0
  6  7  1  0  0  0
  7  8  1  0  0  0
  4  8  1  0  0  0
  8 21  1  0  0  0
 21 22  2  0  0  0
 22 23  1  0  0  0
 23 29  1  0  0  0
 29 30  1  0  0  0
 23 24  2  0  0  0
 24 25  1  0  0  0
 24 26  1  0  0  0
 26 31  1  0  0  0
 31 32  1  0  0  0
 26 27  2  0  0  0
 21 27  1  0  0  0
 11 12  2  0  0  0
 12 13  1  0  0  0
 13 19  1  0  0  0
 19 20  1  0  0  0
 13 14  2  0  0  0
  9 14  1  0  0  0
 14 15  1  0  0  0
  1 11  1  0  0  0
 25 28  1  0  0  0
 15 16  1  0  0  0
M  END
> <minimizedAffinity>
-7.59474

$$$$
ligand_9


 32 35  0  0  0  0  0  0  0  0999 V2000
  -51.4181   -4.2299   73.9237 C   0  0  0  0  0  0  0  0  0  0  0  0
  -50.0853   -3.7030   73.7890 O   0  0  0  0  0  0  0  0  0  0  0  0
  -49.2592   -4.5406   74.6091 C   0  0  0  0  0  0  0  0  0  0  0  0
  -50.0705   -4.7672   75.8716 C   0  0  0  0  0  0  0  0  0  0  0  0
  -51.5015   -4.6926   75.3807 C   0  0  0  0  0  0  0  0  0  0  0  0
  -52.0545   -6.0989   75.5184 C   0  0  0  0  0  0  0  0  0  0  0  0
  -50.9644   -6.9522   75.8866 O   0  0  0  0  0  0  0  0  0  0  0  0
  -49.9233   -6.1533   76.4760 C   0  0  0  0  0  0  0  0  0  0  0  0
  -54.5572   -2.0486   73.8713 C   0  0  0  0  0  0  0  0  0  0  0  0
  -53.6070   -3.0299   74.2007 C   0  0  0  0  0  0  0  0  0  0  0  0
  -52.4504   -3.2363   73.4326 C   0  0  0  0  0  0  0  0  0  0  0  0
  -52.2852   -2.4349   72.2985 C   0  0  0  0  0  0  0  0  0  0  0  0
  -53.2271   -1.4642   71.9258 C   0  0  0  0  0  0  0  0  0  0  0  0
  -54.3587   -1.2597   72.7292 C   0  0  0  0  0  0  0  0  0  0  0  0
  -55.2292   -0.2459   72.4398 O   0  0  0  0  0  0  0  0  0  0  0  0
  -54.6769    0.5332   72.2635 H   0  0  0  0  0  0  0  0  0  0  0  0
  -55.8991   -3.1370   75.5401 C   0  0  0  0  0  0  0  0  0  0  0  0
  -55.5646   -1.9752   74.7982 O   0  0  0  0  0  0  0  0  0  0  0  0
  -52.8444   -0.7690   70.8096 O   0  0  0  0  0  0  0  0  0  0  0  0
  -51.4999   -0.3263   70.6928 C   0  0  0  0  0  0  0  0  0  0  0  0
  -50.0548   -6.2248   77.9915 C   0  0  0  0  0  0  0  0  0  0  0  0
  -50.8799   -7.1706   78.6289 C   0  0  0  0  0  0  0  0  0  0  0  0
  -50.9259   -7.2640   80.0190 C   0  0  0  0  0  0  0  0  0  0  0  0
  -50.1684   -6.3708   80.7845 C   0  0  0  0  0  0  0  0  0  0  0  0
  -50.2284   -6.4622   82.1549 O   0  0  0  0  0  0  0  0  0  0  0  0
  -49.3537   -5.4035   80.1875 C   0  0  0  0  0  0  0  0  0  0  0  0
  -49.2923   -5.3497   78.7906 C   0  0  0  0  0  0  0  0  0  0  0  0
  -50.8337   -7.2055   82.3346 H   0  0  0  0  0  0  0  0  0  0  0  0
  -51.6661   -8.1710   80.7366 O   0  0  0  0  0  0  0  0  0  0  0  0
  -51.2026   -9.5174   80.7325 C   0  0  0  0  0  0  0  0  0  0  0  0
  -48.6579   -4.5871   81.0386 O   0  0  0  0  0  0  0  0  0  0  0  0
  -48.5085   -3.2259   80.6650 C   0  0  0  0  0  0  0  0  0  0  0  0
 17 18  1  0  0  0
 18  9  1  0  0  0
  9 10  2  0  0  0
 10 11  1  0  0  0
  1  2  1  0  0  0
  2  3  1  0  0  0
  3  4  1  0  0  0
  4  5  1  0  0  0
  1  5  1  0  0  0
  5  6  1  0  0  0
  6  7  1  0  0  0
  7  8  1  0  0  0
  4  8  1  0  0  0
  8 21  1  0  0  0
 21 22  2  0  0  0
 22 23  1  0  0  0
 23 29  1  0  0  0
 29 30  1  0  0  0
 23 24  2  0  0  0
 24 25  1  0  0  0
 24 26  1  0  0  0
 26 31  1  0  0  0
 31 32  1  0  0  0
 26 27  2  0  0  0
 21 27  1  0  0  0
 11 12  2  0  0  0
 12 13  1  0  0  0
 13 19  1  0  0  0
 19 20  1  0  0  0
 13 14  2  0  0  0
  9 14  1  0  0  0
 14 15  1  0  0  0
  1 11  1  0  0  0
 25 28  1  0  0  0
 15 16  1  0  0  0
M  END
> <minimizedAffinity>
-7.55898

$$$$
ligand_9


 32 35  0  0  0  0  0  0  0  0999 V2000
  -51.2430   -4.1169   73.8641 C   0  0  0  0  0  0  0  0  0  0  0  0
  -49.8776   -3.6831   73.7245 O   0  0  0  0  0  0  0  0  0  0  0  0
  -49.1092   -4.5702   74.5487 C   0  0  0  0  0  0  0  0  0  0  0  0
  -49.9319   -4.7330   75.8136 C   0  0  0  0  0  0  0  0  0  0  0  0
  -51.3553   -4.5638   75.3241 C   0  0  0  0  0  0  0  0  0  0  0  0
  -52.0029   -5.9282   75.4714 C   0  0  0  0  0  0  0  0  0  0  0  0
  -50.9731   -6.8517   75.8434 O   0  0  0  0  0  0  0  0  0  0  0  0
  -49.8788   -6.1222   76.4266 C   0  0  0  0  0  0  0  0  0  0  0  0
  -52.8224   -1.4932   71.5759 C   0  0  0  0  0  0  0  0  0  0  0  0
  -51.9262   -2.4060   72.1571 C   0  0  0  0  0  0  0  0  0  0  0  0
  -52.2058   -3.0581   73.3682 C   0  0  0  0  0  0  0  0  0  0  0  0
  -53.4153   -2.7463   73.9973 C   0  0  0  0  0  0  0  0  0  0  0  0
  -54.3208   -1.8200   73.4583 C   0  0  0  0  0  0  0  0  0  0  0  0
  -54.0282   -1.2061   72.2314 C   0  0  0  0  0  0  0  0  0  0  0  0
  -54.9479   -0.3848   71.6407 O   0  0  0  0  0  0  0  0  0  0  0  0
  -55.7959   -0.8545   71.6984 H   0  0  0  0  0  0  0  0  0  0  0  0
  -51.3806   -0.0264   70.3349 C   0  0  0  0  0  0  0  0  0  0  0  0
  -52.3773   -1.0354   70.3628 O   0  0  0  0  0  0  0  0  0  0  0  0
  -55.4556   -1.7002   74.2157 O   0  0  0  0  0  0  0  0  0  0  0  0
  -55.6444   -2.5639   75.3272 C   0  0  0  0  0  0  0  0  0  0  0  0
  -50.0122   -6.1752   77.9426 C   0  0  0  0  0  0  0  0  0  0  0  0
  -50.8222   -7.1264   78.5913 C   0  0  0  0  0  0  0  0  0  0  0  0
  -50.8696   -7.2016   79.9824 C   0  0  0  0  0  0  0  0  0  0  0  0
  -50.1294   -6.2850   80.7371 C   0  0  0  0  0  0  0  0  0  0  0  0
  -50.1906   -6.3587   82.1085 O   0  0  0  0  0  0  0  0  0  0  0  0
  -49.3302   -5.3119   80.1285 C   0  0  0  0  0  0  0  0  0  0  0  0
  -49.2668   -5.2763   78.7311 C   0  0  0  0  0  0  0  0  0  0  0  0
  -50.7834   -7.1098   82.2972 H   0  0  0  0  0  0  0  0  0  0  0  0
  -51.5955   -8.1114   80.7110 O   0  0  0  0  0  0  0  0  0  0  0  0
  -51.1387   -9.4598   80.6835 C   0  0  0  0  0  0  0  0  0  0  0  0
  -48.6505   -4.4721   80.9696 O   0  0  0  0  0  0  0  0  0  0  0  0
  -48.4864   -3.1237   80.5574 C   0  0  0  0  0  0  0  0  0  0  0  0
 17 18  1  0  0  0
 18  9  1  0  0  0
  9 10  2  0  0  0
 10 11  1  0  0  0
  1  2  1  0  0  0
  2  3  1  0  0  0
  3  4  1  0  0  0
  4  5  1  0  0  0
  1  5  1  0  0  0
  5  6  1  0  0  0
  6  7  1  0  0  0
  7  8  1  0  0  0
  4  8  1  0  0  0
  8 21  1  0  0  0
 21 22  2  0  0  0
 22 23  1  0  0  0
 23 29  1  0  0  0
 29 30  1  0  0  0
 23 24  2  0  0  0
 24 25  1  0  0  0
 24 26  1  0  0  0
 26 31  1  0  0  0
 31 32  1  0  0  0
 26 27  2  0  0  0
 21 27  1  0  0  0
 11 12  2  0  0  0
 12 13  1  0  0  0
 13 19  1  0  0  0
 19 20  1  0  0  0
 13 14  2  0  0  0
  9 14  1  0  0  0
 14 15  1  0  0  0
  1 11  1  0  0  0
 25 28  1  0  0  0
 15 16  1  0  0  0
M  END
> <minimizedAffinity>
-7.54908

$$$$
ligand_9


 32 35  0  0  0  0  0  0  0  0999 V2000
  -51.3135   -3.5906   74.4152 C   0  0  0  0  0  0  0  0  0  0  0  0
  -50.0708   -3.1732   73.8206 O   0  0  0  0  0  0  0  0  0  0  0  0
  -50.4303   -2.2059   72.8247 C   0  0  0  0  0  0  0  0  0  0  0  0
  -51.6617   -2.7834   72.1511 C   0  0  0  0  0  0  0  0  0  0  0  0
  -52.3119   -3.5919   73.2546 C   0  0  0  0  0  0  0  0  0  0  0  0
  -53.6007   -2.8640   73.5892 C   0  0  0  0  0  0  0  0  0  0  0  0
  -53.5964   -1.6310   72.8601 O   0  0  0  0  0  0  0  0  0  0  0  0
  -52.6994   -1.7519   71.7418 C   0  0  0  0  0  0  0  0  0  0  0  0
  -49.7950   -6.1401   76.8252 C   0  0  0  0  0  0  0  0  0  0  0  0
  -49.9804   -5.0321   75.9813 C   0  0  0  0  0  0  0  0  0  0  0  0
  -51.1383   -4.8715   75.2043 C   0  0  0  0  0  0  0  0  0  0  0  0
  -52.1054   -5.8785   75.2832 C   0  0  0  0  0  0  0  0  0  0  0  0
  -51.9407   -7.0108   76.0950 C   0  0  0  0  0  0  0  0  0  0  0  0
  -50.7865   -7.1299   76.8833 C   0  0  0  0  0  0  0  0  0  0  0  0
  -50.6609   -8.1717   77.7597 O   0  0  0  0  0  0  0  0  0  0  0  0
  -51.5110   -8.2278   78.2257 H   0  0  0  0  0  0  0  0  0  0  0  0
  -48.2601   -4.8029   78.1004 C   0  0  0  0  0  0  0  0  0  0  0  0
  -48.6290   -6.0531   77.5411 O   0  0  0  0  0  0  0  0  0  0  0  0
  -53.0263   -7.8446   76.0521 O   0  0  0  0  0  0  0  0  0  0  0  0
  -54.3323   -7.2865   76.0499 C   0  0  0  0  0  0  0  0  0  0  0  0
  -53.5126   -2.0968   70.5014 C   0  0  0  0  0  0  0  0  0  0  0  0
  -54.7423   -1.4748   70.2140 C   0  0  0  0  0  0  0  0  0  0  0  0
  -55.4313   -1.7541   69.0348 C   0  0  0  0  0  0  0  0  0  0  0  0
  -54.9047   -2.7009   68.1494 C   0  0  0  0  0  0  0  0  0  0  0  0
  -55.5963   -2.9789   66.9942 O   0  0  0  0  0  0  0  0  0  0  0  0
  -53.6968   -3.3554   68.4108 C   0  0  0  0  0  0  0  0  0  0  0  0
  -53.0015   -3.0342   69.5819 C   0  0  0  0  0  0  0  0  0  0  0  0
  -56.3810   -2.4004   67.0213 H   0  0  0  0  0  0  0  0  0  0  0  0
  -56.6146   -1.1782   68.6430 O   0  0  0  0  0  0  0  0  0  0  0  0
  -56.6310    0.2424   68.5472 C   0  0  0  0  0  0  0  0  0  0  0  0
  -53.2808   -4.2597   67.4705 O   0  0  0  0  0  0  0  0  0  0  0  0
  -52.5373   -3.7632   66.3680 C   0  0  0  0  0  0  0  0  0  0  0  0
 17 18  1  0  0  0
 18  9  1  0  0  0
  9 10  2  0  0  0
 10 11  1  0  0  0
  1  2  1  0  0  0
  2  3  1  0  0  0
  3  4  1  0  0  0
  4  5  1  0  0  0
  1  5  1  0  0  0
  5  6  1  0  0  0
  6  7  1  0  0  0
  7  8  1  0  0  0
  4  8  1  0  0  0
  8 21  1  0  0  0
 21 22  2  0  0  0
 22 23  1  0  0  0
 23 29  1  0  0  0
 29 30  1  0  0  0
 23 24  2  0  0  0
 24 25  1  0  0  0
 24 26  1  0  0  0
 26 31  1  0  0  0
 31 32  1  0  0  0
 26 27  2  0  0  0
 21 27  1  0  0  0
 11 12  2  0  0  0
 12 13  1  0  0  0
 13 19  1  0  0  0
 19 20  1  0  0  0
 13 14  2  0  0  0
  9 14  1  0  0  0
 14 15  1  0  0  0
  1 11  1  0  0  0
 25 28  1  0  0  0
 15 16  1  0  0  0
M  END
> <minimizedAffinity>
-7.40263

$$$$
