ligand_34


 23 26  0  0  0  0  0  0  0  0999 V2000
  -53.5650   -7.2838   75.9914 C   0  0  0  0  0  0  0  0  0  0  0  0
  -52.3033   -7.7199   76.4294 C   0  0  0  0  0  0  0  0  0  0  0  0
  -51.1848   -6.9212   76.2109 C   0  0  0  0  0  0  0  0  0  0  0  0
  -51.3717   -5.7222   75.5319 C   0  0  0  0  0  0  0  0  0  0  0  0
  -52.6155   -5.2634   75.0911 C   0  0  0  0  0  0  0  0  0  0  0  0
  -53.7262   -6.0650   75.3090 C   0  0  0  0  0  0  0  0  0  0  0  0
  -54.9780   -5.7160   74.8954 O   0  0  0  0  0  0  0  0  0  0  0  0
  -52.4511   -3.9295   74.3866 C   0  0  0  0  0  0  0  0  0  0  0  0
  -53.4480   -2.8846   74.8468 C   0  0  0  0  0  0  0  0  0  0  0  0
  -54.3253   -2.2647   74.0436 C   0  0  0  0  0  0  0  0  0  0  0  0
  -54.4028   -2.5955   72.6045 C   0  0  0  0  0  0  0  0  0  0  0  0
  -55.2620   -2.1023   71.8837 O   0  0  0  0  0  0  0  0  0  0  0  0
  -53.4153   -3.5618   72.0763 C   0  0  0  0  0  0  0  0  0  0  0  0
  -52.5185   -4.1471   72.8850 C   0  0  0  0  0  0  0  0  0  0  0  0
  -51.0199   -3.4900   74.8579 C   0  0  0  0  0  0  0  0  0  0  0  0
  -50.2528   -4.7752   75.2222 C   0  0  0  0  0  0  0  0  0  0  0  0
  -49.2593   -4.7498   76.3143 N   0  0  0  0  0  0  0  0  0  0  0  0
  -49.7847   -4.2326   77.5852 C   0  0  0  0  0  0  0  0  0  0  0  0
  -48.7543   -6.1377   76.4831 C   0  0  0  0  0  0  0  0  0  0  0  0
  -49.8148   -7.2444   76.7464 C   0  0  0  0  0  0  0  0  0  0  0  0
  -54.9106   -5.0037   74.2422 H   0  0  0  0  0  0  0  0  0  0  0  0
  -54.5650   -8.7742   77.4260 C   0  0  0  0  0  0  0  0  0  0  0  0
  -54.6520   -8.1038   76.1705 O   0  0  0  0  0  0  0  0  0  0  0  0
 22 23  1  0  0  0
 23  1  1  0  0  0
  1  2  2  0  0  0
  2  3  1  0  0  0
  3  4  2  0  0  0
  4  5  1  0  0  0
  5  6  2  0  0  0
  1  6  1  0  0  0
  6  7  1  0  0  0
  5  8  1  0  0  0
  8  9  1  0  0  0
  9 10  2  0  0  0
 10 11  1  0  0  0
 11 12  2  0  0  0
 11 13  1  0  0  0
 13 14  2  0  0  0
  8 14  1  0  0  0
  8 15  1  0  0  0
 15 16  1  0  0  0
  4 16  1  0  0  0
 16 17  1  0  0  0
 17 18  1  0  0  0
 17 19  1  0  0  0
 19 20  1  0  0  0
  3 20  1  0  0  0
  7 21  1  0  0  0
M  END
> <minimizedAffinity>
-7.15557

$$$$
ligand_34


 23 26  0  0  0  0  0  0  0  0999 V2000
  -50.3055   -3.2338   72.8418 C   0  0  0  0  0  0  0  0  0  0  0  0
  -50.0651   -3.1846   71.4584 C   0  0  0  0  0  0  0  0  0  0  0  0
  -51.1173   -2.9235   70.5857 C   0  0  0  0  0  0  0  0  0  0  0  0
  -52.3826   -2.7497   71.1354 C   0  0  0  0  0  0  0  0  0  0  0  0
  -52.6472   -2.7884   72.5066 C   0  0  0  0  0  0  0  0  0  0  0  0
  -51.5952   -3.0519   73.3714 C   0  0  0  0  0  0  0  0  0  0  0  0
  -51.7568   -3.1338   74.7231 O   0  0  0  0  0  0  0  0  0  0  0  0
  -54.1284   -2.5670   72.7508 C   0  0  0  0  0  0  0  0  0  0  0  0
  -54.4084   -1.5419   73.8317 C   0  0  0  0  0  0  0  0  0  0  0  0
  -55.1036   -1.7886   74.9519 C   0  0  0  0  0  0  0  0  0  0  0  0
  -55.6371   -3.1386   75.2331 C   0  0  0  0  0  0  0  0  0  0  0  0
  -56.1920   -3.3951   76.2949 O   0  0  0  0  0  0  0  0  0  0  0  0
  -55.4540   -4.1712   74.1900 C   0  0  0  0  0  0  0  0  0  0  0  0
  -54.7881   -3.9003   73.0569 C   0  0  0  0  0  0  0  0  0  0  0  0
  -54.5974   -1.9761   71.3744 C   0  0  0  0  0  0  0  0  0  0  0  0
  -53.6018   -2.4738   70.3095 C   0  0  0  0  0  0  0  0  0  0  0  0
  -53.2778   -1.6154   69.1525 N   0  0  0  0  0  0  0  0  0  0  0  0
  -52.8189   -0.2689   69.5201 C   0  0  0  0  0  0  0  0  0  0  0  0
  -52.2406   -2.3222   68.3560 C   0  0  0  0  0  0  0  0  0  0  0  0
  -50.9395   -2.7324   69.1024 C   0  0  0  0  0  0  0  0  0  0  0  0
  -52.6985   -3.2373   74.9257 H   0  0  0  0  0  0  0  0  0  0  0  0
  -48.0666   -3.7399   72.9451 C   0  0  0  0  0  0  0  0  0  0  0  0
  -49.2677   -3.5403   73.6874 O   0  0  0  0  0  0  0  0  0  0  0  0
 22 23  1  0  0  0
 23  1  1  0  0  0
  1  2  2  0  0  0
  2  3  1  0  0  0
  3  4  2  0  0  0
  4  5  1  0  0  0
  5  6  2  0  0  0
  1  6  1  0  0  0
  6  7  1  0  0  0
  5  8  1  0  0  0
  8  9  1  0  0  0
  9 10  2  0  0  0
 10 11  1  0  0  0
 11 12  2  0  0  0
 11 13  1  0  0  0
 13 14  2  0  0  0
  8 14  1  0  0  0
  8 15  1  0  0  0
 15 16  1  0  0  0
  4 16  1  0  0  0
 16 17  1  0  0  0
 17 18  1  0  0  0
 17 19  1  0  0  0
 19 20  1  0  0  0
  3 20  1  0  0  0
  7 21  1  0  0  0
M  END
> <minimizedAffinity>
-7.05347

$$$$
ligand_34


 23 26  0  0  0  0  0  0  0  0999 V2000
  -54.8337   -0.9182   72.7194 C   0  0  0  0  0  0  0  0  0  0  0  0
  -55.0050   -1.9514   73.6558 C   0  0  0  0  0  0  0  0  0  0  0  0
  -54.0592   -2.9690   73.7388 C   0  0  0  0  0  0  0  0  0  0  0  0
  -52.9871   -2.9261   72.8543 C   0  0  0  0  0  0  0  0  0  0  0  0
  -52.7910   -1.9078   71.9182 C   0  0  0  0  0  0  0  0  0  0  0  0
  -53.7383   -0.8979   71.8381 C   0  0  0  0  0  0  0  0  0  0  0  0
  -53.6483    0.1259   70.9417 O   0  0  0  0  0  0  0  0  0  0  0  0
  -51.5309   -2.1809   71.1180 C   0  0  0  0  0  0  0  0  0  0  0  0
  -50.6234   -0.9723   71.0028 C   0  0  0  0  0  0  0  0  0  0  0  0
  -50.2470   -0.4117   69.8439 C   0  0  0  0  0  0  0  0  0  0  0  0
  -50.7372   -0.9368   68.5515 C   0  0  0  0  0  0  0  0  0  0  0  0
  -50.4732   -0.3750   67.4952 O   0  0  0  0  0  0  0  0  0  0  0  0
  -51.5765   -2.1542   68.5883 C   0  0  0  0  0  0  0  0  0  0  0  0
  -51.9151   -2.7267   69.7538 C   0  0  0  0  0  0  0  0  0  0  0  0
  -50.8120   -3.2573   72.0057 C   0  0  0  0  0  0  0  0  0  0  0  0
  -51.9056   -3.9627   72.8299 C   0  0  0  0  0  0  0  0  0  0  0  0
  -51.5994   -4.4446   74.1917 N   0  0  0  0  0  0  0  0  0  0  0  0
  -51.0446   -3.4123   75.0778 C   0  0  0  0  0  0  0  0  0  0  0  0
  -52.8581   -4.9977   74.7569 C   0  0  0  0  0  0  0  0  0  0  0  0
  -54.0913   -4.0507   74.7862 C   0  0  0  0  0  0  0  0  0  0  0  0
  -53.0083   -0.1088   70.2533 H   0  0  0  0  0  0  0  0  0  0  0  0
  -55.3997    1.2262   73.3204 C   0  0  0  0  0  0  0  0  0  0  0  0
  -55.7993    0.0528   72.6154 O   0  0  0  0  0  0  0  0  0  0  0  0
 22 23  1  0  0  0
 23  1  1  0  0  0
  1  2  2  0  0  0
  2  3  1  0  0  0
  3  4  2  0  0  0
  4  5  1  0  0  0
  5  6  2  0  0  0
  1  6  1  0  0  0
  6  7  1  0  0  0
  5  8  1  0  0  0
  8  9  1  0  0  0
  9 10  2  0  0  0
 10 11  1  0  0  0
 11 12  2  0  0  0
 11 13  1  0  0  0
 13 14  2  0  0  0
  8 14  1  0  0  0
  8 15  1  0  0  0
 15 16  1  0  0  0
  4 16  1  0  0  0
 16 17  1  0  0  0
 17 18  1  0  0  0
 17 19  1  0  0  0
 19 20  1  0  0  0
  3 20  1  0  0  0
  7 21  1  0  0  0
M  END
> <minimizedAffinity>
-7.02036

$$$$
ligand_34


 23 26  0  0  0  0  0  0  0  0999 V2000
  -53.9627   -3.4068   72.8464 C   0  0  0  0  0  0  0  0  0  0  0  0
  -52.7060   -3.7320   73.3837 C   0  0  0  0  0  0  0  0  0  0  0  0
  -51.5675   -3.6144   72.5919 C   0  0  0  0  0  0  0  0  0  0  0  0
  -51.7380   -3.2006   71.2754 C   0  0  0  0  0  0  0  0  0  0  0  0
  -52.9750   -2.8664   70.7188 C   0  0  0  0  0  0  0  0  0  0  0  0
  -54.1065   -2.9883   71.5118 C   0  0  0  0  0  0  0  0  0  0  0  0
  -55.3600   -2.7093   71.0529 O   0  0  0  0  0  0  0  0  0  0  0  0
  -52.7940   -2.4664   69.2663 C   0  0  0  0  0  0  0  0  0  0  0  0
  -53.5110   -1.1801   68.9076 C   0  0  0  0  0  0  0  0  0  0  0  0
  -54.4540   -1.0739   67.9597 C   0  0  0  0  0  0  0  0  0  0  0  0
  -54.8970   -2.2581   67.1930 C   0  0  0  0  0  0  0  0  0  0  0  0
  -55.8213   -2.1880   66.3918 O   0  0  0  0  0  0  0  0  0  0  0  0
  -54.1937   -3.5339   67.4488 C   0  0  0  0  0  0  0  0  0  0  0  0
  -53.2260   -3.6175   68.3746 C   0  0  0  0  0  0  0  0  0  0  0  0
  -51.2475   -2.2084   69.1931 C   0  0  0  0  0  0  0  0  0  0  0  0
  -50.5995   -3.0428   70.3142 C   0  0  0  0  0  0  0  0  0  0  0  0
  -49.3920   -2.5378   70.9978 N   0  0  0  0  0  0  0  0  0  0  0  0
  -49.5432   -1.1856   71.5522 C   0  0  0  0  0  0  0  0  0  0  0  0
  -49.0549   -3.5088   72.0717 C   0  0  0  0  0  0  0  0  0  0  0  0
  -50.1689   -3.8231   73.1102 C   0  0  0  0  0  0  0  0  0  0  0  0
  -55.3453   -2.6783   70.0847 H   0  0  0  0  0  0  0  0  0  0  0  0
  -54.7461   -4.2362   74.8409 C   0  0  0  0  0  0  0  0  0  0  0  0
  -55.0825   -3.5739   73.6237 O   0  0  0  0  0  0  0  0  0  0  0  0
 22 23  1  0  0  0
 23  1  1  0  0  0
  1  2  2  0  0  0
  2  3  1  0  0  0
  3  4  2  0  0  0
  4  5  1  0  0  0
  5  6  2  0  0  0
  1  6  1  0  0  0
  6  7  1  0  0  0
  5  8  1  0  0  0
  8  9  1  0  0  0
  9 10  2  0  0  0
 10 11  1  0  0  0
 11 12  2  0  0  0
 11 13  1  0  0  0
 13 14  2  0  0  0
  8 14  1  0  0  0
  8 15  1  0  0  0
 15 16  1  0  0  0
  4 16  1  0  0  0
 16 17  1  0  0  0
 17 18  1  0  0  0
 17 19  1  0  0  0
 19 20  1  0  0  0
  3 20  1  0  0  0
  7 21  1  0  0  0
M  END
> <minimizedAffinity>
-7.00719

$$$$
ligand_34


 23 26  0  0  0  0  0  0  0  0999 V2000
  -51.5547   -2.8107   70.1640 C   0  0  0  0  0  0  0  0  0  0  0  0
  -51.9300   -3.0922   68.8397 C   0  0  0  0  0  0  0  0  0  0  0  0
  -53.2665   -2.9875   68.4660 C   0  0  0  0  0  0  0  0  0  0  0  0
  -54.1843   -2.6308   69.4478 C   0  0  0  0  0  0  0  0  0  0  0  0
  -53.8365   -2.3407   70.7694 C   0  0  0  0  0  0  0  0  0  0  0  0
  -52.5034   -2.4494   71.1368 C   0  0  0  0  0  0  0  0  0  0  0  0
  -52.0685   -2.2108   72.4071 O   0  0  0  0  0  0  0  0  0  0  0  0
  -55.0820   -1.9972   71.5652 C   0  0  0  0  0  0  0  0  0  0  0  0
  -54.9310   -0.7390   72.3967 C   0  0  0  0  0  0  0  0  0  0  0  0
  -55.0674   -0.6877   73.7300 C   0  0  0  0  0  0  0  0  0  0  0  0
  -55.3542   -1.9095   74.5118 C   0  0  0  0  0  0  0  0  0  0  0  0
  -55.3885   -1.8879   75.7364 O   0  0  0  0  0  0  0  0  0  0  0  0
  -55.5763   -3.1616   73.7565 C   0  0  0  0  0  0  0  0  0  0  0  0
  -55.4731   -3.1909   72.4189 C   0  0  0  0  0  0  0  0  0  0  0  0
  -56.1250   -1.7161   70.4264 C   0  0  0  0  0  0  0  0  0  0  0  0
  -55.6525   -2.4929   69.1830 C   0  0  0  0  0  0  0  0  0  0  0  0
  -55.9008   -1.9400   67.8365 N   0  0  0  0  0  0  0  0  0  0  0  0
  -55.4045   -0.5690   67.6550 C   0  0  0  0  0  0  0  0  0  0  0  0
  -55.2647   -2.8604   66.8578 C   0  0  0  0  0  0  0  0  0  0  0  0
  -53.7489   -3.1511   67.0487 C   0  0  0  0  0  0  0  0  0  0  0  0
  -52.8267   -2.2190   73.0102 H   0  0  0  0  0  0  0  0  0  0  0  0
  -49.5118   -1.7650   70.2788 C   0  0  0  0  0  0  0  0  0  0  0  0
  -50.2401   -2.9649   70.5305 O   0  0  0  0  0  0  0  0  0  0  0  0
 22 23  1  0  0  0
 23  1  1  0  0  0
  1  2  2  0  0  0
  2  3  1  0  0  0
  3  4  2  0  0  0
  4  5  1  0  0  0
  5  6  2  0  0  0
  1  6  1  0  0  0
  6  7  1  0  0  0
  5  8  1  0  0  0
  8  9  1  0  0  0
  9 10  2  0  0  0
 10 11  1  0  0  0
 11 12  2  0  0  0
 11 13  1  0  0  0
 13 14  2  0  0  0
  8 14  1  0  0  0
  8 15  1  0  0  0
 15 16  1  0  0  0
  4 16  1  0  0  0
 16 17  1  0  0  0
 17 18  1  0  0  0
 17 19  1  0  0  0
 19 20  1  0  0  0
  3 20  1  0  0  0
  7 21  1  0  0  0
M  END
> <minimizedAffinity>
-6.77847

$$$$
