ligand_47


 24 27  0  0  0  0  0  0  0  0999 V2000
  -53.6215   -4.9996   75.0078 C   0  0  0  0  0  0  0  0  0  0  0  0
  -52.6974   -3.8470   74.5949 C   0  0  0  0  0  0  0  0  0  0  0  0
  -51.2686   -4.1818   74.8499 C   0  0  0  0  0  0  0  0  0  0  0  0
  -50.5900   -4.5222   76.0457 C   0  0  0  0  0  0  0  0  0  0  0  0
  -49.2578   -4.6286   75.7104 C   0  0  0  0  0  0  0  0  0  0  0  0
  -49.0730   -4.3798   74.3837 O   0  0  0  0  0  0  0  0  0  0  0  0
  -50.3001   -4.1071   73.8801 C   0  0  0  0  0  0  0  0  0  0  0  0
  -50.4575   -3.6919   72.4683 C   0  0  0  0  0  0  0  0  0  0  0  0
  -51.7172   -2.7821   72.3682 C   0  0  0  0  0  0  0  0  0  0  0  0
  -52.9513   -3.4357   73.0931 C   0  0  0  0  0  0  0  0  0  0  0  0
  -54.1511   -2.4809   73.0698 C   0  0  0  0  0  0  0  0  0  0  0  0
  -54.4458   -1.8844   71.7070 C   0  0  0  0  0  0  0  0  0  0  0  0
  -53.2068   -1.1974   71.0640 C   0  0  0  0  0  0  0  0  0  0  0  0
  -52.0515   -2.2530   70.9062 C   0  0  0  0  0  0  0  0  0  0  0  0
  -50.7532   -1.6405   70.3182 C   0  0  0  0  0  0  0  0  0  0  0  0
  -52.5003   -3.3551   69.9089 C   0  0  0  0  0  0  0  0  0  0  0  0
  -53.4948   -2.8998   68.8240 C   0  0  0  0  0  0  0  0  0  0  0  0
  -53.5840   -1.3988   68.5251 C   0  0  0  0  0  0  0  0  0  0  0  0
  -53.5682   -0.4301   69.7396 C   0  0  0  0  0  0  0  0  0  0  0  0
  -54.9173    0.3214   69.9036 C   0  0  0  0  0  0  0  0  0  0  0  0
  -52.5691    0.7277   69.4759 C   0  0  0  0  0  0  0  0  0  0  0  0
  -51.9646    0.9107   68.4343 O   0  0  0  0  0  0  0  0  0  0  0  0
  -52.3456    1.5238   70.5532 O   0  0  0  0  0  0  0  0  0  0  0  0
  -52.8051    1.2532   71.3690 H   0  0  0  0  0  0  0  0  0  0  0  0
  2  3  1  0  0  0
  3  4  1  0  0  0
  4  5  2  0  0  0
  5  6  1  0  0  0
  6  7  1  0  0  0
  3  7  2  0  0  0
  7  8  1  0  0  0
  8  9  1  0  0  0
  9 10  1  0  0  0
  2 10  1  0  0  0
 10 11  1  0  0  0
 11 12  1  0  0  0
 12 13  1  0  0  0
 13 14  1  0  0  0
  9 14  1  0  0  0
 14 16  1  0  0  0
 16 17  1  0  0  0
 17 18  1  0  0  0
 18 19  1  0  0  0
 13 19  1  0  0  0
 21 22  2  0  0  0
 21 23  1  0  0  0
 14 15  1  0  0  0
 19 21  1  0  0  0
 19 20  1  0  0  0
  2  1  1  0  0  0
 23 24  1  0  0  0
M  END
> <minimizedAffinity>
-7.53715

$$$$
ligand_47


 24 27  0  0  0  0  0  0  0  0999 V2000
  -51.9427   -4.3384   74.6551 C   0  0  0  0  0  0  0  0  0  0  0  0
  -53.1132   -4.2003   73.6733 C   0  0  0  0  0  0  0  0  0  0  0  0
  -54.3926   -3.9412   74.3906 C   0  0  0  0  0  0  0  0  0  0  0  0
  -55.0820   -4.6976   75.3699 C   0  0  0  0  0  0  0  0  0  0  0  0
  -56.2646   -4.0302   75.6037 C   0  0  0  0  0  0  0  0  0  0  0  0
  -56.3457   -2.9088   74.8342 O   0  0  0  0  0  0  0  0  0  0  0  0
  -55.2061   -2.8736   74.1036 C   0  0  0  0  0  0  0  0  0  0  0  0
  -55.0040   -1.8269   73.0768 C   0  0  0  0  0  0  0  0  0  0  0  0
  -54.0789   -2.4085   71.9676 C   0  0  0  0  0  0  0  0  0  0  0  0
  -52.8074   -3.0963   72.5885 C   0  0  0  0  0  0  0  0  0  0  0  0
  -51.9622   -3.7488   71.4877 C   0  0  0  0  0  0  0  0  0  0  0  0
  -51.6919   -2.8511   70.2957 C   0  0  0  0  0  0  0  0  0  0  0  0
  -52.9887   -2.2476   69.6835 C   0  0  0  0  0  0  0  0  0  0  0  0
  -53.7381   -1.4061   70.7808 C   0  0  0  0  0  0  0  0  0  0  0  0
  -55.0752   -0.8074   70.2708 C   0  0  0  0  0  0  0  0  0  0  0  0
  -52.8520   -0.1990   71.1912 C   0  0  0  0  0  0  0  0  0  0  0  0
  -51.9135    0.3359   70.0929 C   0  0  0  0  0  0  0  0  0  0  0  0
  -52.2480   -0.0144   68.6382 C   0  0  0  0  0  0  0  0  0  0  0  0
  -52.7123   -1.4678   68.3459 C   0  0  0  0  0  0  0  0  0  0  0  0
  -51.6883   -2.2426   67.4726 C   0  0  0  0  0  0  0  0  0  0  0  0
  -53.9742   -1.4452   67.4430 C   0  0  0  0  0  0  0  0  0  0  0  0
  -54.6005   -2.4270   67.0859 O   0  0  0  0  0  0  0  0  0  0  0  0
  -54.3142   -0.2087   66.9958 O   0  0  0  0  0  0  0  0  0  0  0  0
  -53.7082    0.5073   67.2604 H   0  0  0  0  0  0  0  0  0  0  0  0
  2  3  1  0  0  0
  3  4  1  0  0  0
  4  5  2  0  0  0
  5  6  1  0  0  0
  6  7  1  0  0  0
  3  7  2  0  0  0
  7  8  1  0  0  0
  8  9  1  0  0  0
  9 10  1  0  0  0
  2 10  1  0  0  0
 10 11  1  0  0  0
 11 12  1  0  0  0
 12 13  1  0  0  0
 13 14  1  0  0  0
  9 14  1  0  0  0
 14 16  1  0  0  0
 16 17  1  0  0  0
 17 18  1  0  0  0
 18 19  1  0  0  0
 13 19  1  0  0  0
 21 22  2  0  0  0
 21 23  1  0  0  0
 14 15  1  0  0  0
 19 21  1  0  0  0
 19 20  1  0  0  0
  2  1  1  0  0  0
 23 24  1  0  0  0
M  END
> <minimizedAffinity>
-7.47961

$$$$
ligand_47


 24 27  0  0  0  0  0  0  0  0999 V2000
  -52.7479   -4.5126   73.5762 C   0  0  0  0  0  0  0  0  0  0  0  0
  -52.2232   -3.2777   72.8330 C   0  0  0  0  0  0  0  0  0  0  0  0
  -50.7414   -3.3224   72.6892 C   0  0  0  0  0  0  0  0  0  0  0  0
  -49.7121   -3.3849   73.6603 C   0  0  0  0  0  0  0  0  0  0  0  0
  -48.5261   -3.2981   72.9642 C   0  0  0  0  0  0  0  0  0  0  0  0
  -48.7590   -3.1905   71.6262 O   0  0  0  0  0  0  0  0  0  0  0  0
  -50.1051   -3.2026   71.4789 C   0  0  0  0  0  0  0  0  0  0  0  0
  -50.7169   -3.0031   70.1461 C   0  0  0  0  0  0  0  0  0  0  0  0
  -52.1148   -2.3479   70.3477 C   0  0  0  0  0  0  0  0  0  0  0  0
  -52.9492   -3.1103   71.4423 C   0  0  0  0  0  0  0  0  0  0  0  0
  -54.2795   -2.3909   71.6967 C   0  0  0  0  0  0  0  0  0  0  0  0
  -55.0442   -2.0323   70.4372 C   0  0  0  0  0  0  0  0  0  0  0  0
  -54.1900   -1.2260   69.4169 C   0  0  0  0  0  0  0  0  0  0  0  0
  -52.9298   -2.0744   69.0096 C   0  0  0  0  0  0  0  0  0  0  0  0
  -51.9900   -1.3236   68.0303 C   0  0  0  0  0  0  0  0  0  0  0  0
  -53.3960   -3.3552   68.2659 C   0  0  0  0  0  0  0  0  0  0  0  0
  -54.7163   -3.2218   67.4834 C   0  0  0  0  0  0  0  0  0  0  0  0
  -55.1859   -1.8095   67.1155 C   0  0  0  0  0  0  0  0  0  0  0  0
  -55.0421   -0.7073   68.2009 C   0  0  0  0  0  0  0  0  0  0  0  0
  -56.4212   -0.1889   68.6918 C   0  0  0  0  0  0  0  0  0  0  0  0
  -54.4078    0.5645   67.5781 C   0  0  0  0  0  0  0  0  0  0  0  0
  -53.6785    1.3450   68.1636 O   0  0  0  0  0  0  0  0  0  0  0  0
  -54.7897    0.8045   66.2970 O   0  0  0  0  0  0  0  0  0  0  0  0
  -55.4419    0.1767   65.9361 H   0  0  0  0  0  0  0  0  0  0  0  0
  2  3  1  0  0  0
  3  4  1  0  0  0
  4  5  2  0  0  0
  5  6  1  0  0  0
  6  7  1  0  0  0
  3  7  2  0  0  0
  7  8  1  0  0  0
  8  9  1  0  0  0
  9 10  1  0  0  0
  2 10  1  0  0  0
 10 11  1  0  0  0
 11 12  1  0  0  0
 12 13  1  0  0  0
 13 14  1  0  0  0
  9 14  1  0  0  0
 14 16  1  0  0  0
 16 17  1  0  0  0
 17 18  1  0  0  0
 18 19  1  0  0  0
 13 19  1  0  0  0
 21 22  2  0  0  0
 21 23  1  0  0  0
 14 15  1  0  0  0
 19 21  1  0  0  0
 19 20  1  0  0  0
  2  1  1  0  0  0
 23 24  1  0  0  0
M  END
> <minimizedAffinity>
-7.39549

$$$$
ligand_47


 24 27  0  0  0  0  0  0  0  0999 V2000
  -50.9604   -5.2520   76.2385 C   0  0  0  0  0  0  0  0  0  0  0  0
  -52.0255   -5.5967   75.1899 C   0  0  0  0  0  0  0  0  0  0  0  0
  -52.9863   -6.6100   75.7082 C   0  0  0  0  0  0  0  0  0  0  0  0
  -52.7841   -7.9289   76.1833 C   0  0  0  0  0  0  0  0  0  0  0  0
  -54.0389   -8.4390   76.4364 C   0  0  0  0  0  0  0  0  0  0  0  0
  -55.0007   -7.5171   76.1517 O   0  0  0  0  0  0  0  0  0  0  0  0
  -54.3454   -6.4181   75.7083 C   0  0  0  0  0  0  0  0  0  0  0  0
  -55.0977   -5.2437   75.2128 C   0  0  0  0  0  0  0  0  0  0  0  0
  -54.2190   -4.5175   74.1522 C   0  0  0  0  0  0  0  0  0  0  0  0
  -52.7547   -4.2930   74.6824 C   0  0  0  0  0  0  0  0  0  0  0  0
  -51.8807   -3.6684   73.5879 C   0  0  0  0  0  0  0  0  0  0  0  0
  -52.5069   -2.4718   72.8983 C   0  0  0  0  0  0  0  0  0  0  0  0
  -53.9283   -2.7682   72.3393 C   0  0  0  0  0  0  0  0  0  0  0  0
  -54.8686   -3.2108   73.5199 C   0  0  0  0  0  0  0  0  0  0  0  0
  -56.2988   -3.5781   73.0445 C   0  0  0  0  0  0  0  0  0  0  0  0
  -55.0327   -2.0279   74.5121 C   0  0  0  0  0  0  0  0  0  0  0  0
  -54.9248   -0.6229   73.8895 C   0  0  0  0  0  0  0  0  0  0  0  0
  -55.1393   -0.4964   72.3767 C   0  0  0  0  0  0  0  0  0  0  0  0
  -54.4904   -1.5814   71.4737 C   0  0  0  0  0  0  0  0  0  0  0  0
  -53.3707   -0.9956   70.5712 C   0  0  0  0  0  0  0  0  0  0  0  0
  -55.5260   -2.0901   70.4361 C   0  0  0  0  0  0  0  0  0  0  0  0
  -55.3797   -3.0608   69.7149 O   0  0  0  0  0  0  0  0  0  0  0  0
  -56.6310   -1.3082   70.3259 O   0  0  0  0  0  0  0  0  0  0  0  0
  -56.6256   -0.5054   70.8785 H   0  0  0  0  0  0  0  0  0  0  0  0
  2  3  1  0  0  0
  3  4  1  0  0  0
  4  5  2  0  0  0
  5  6  1  0  0  0
  6  7  1  0  0  0
  3  7  2  0  0  0
  7  8  1  0  0  0
  8  9  1  0  0  0
  9 10  1  0  0  0
  2 10  1  0  0  0
 10 11  1  0  0  0
 11 12  1  0  0  0
 12 13  1  0  0  0
 13 14  1  0  0  0
  9 14  1  0  0  0
 14 16  1  0  0  0
 16 17  1  0  0  0
 17 18  1  0  0  0
 18 19  1  0  0  0
 13 19  1  0  0  0
 21 22  2  0  0  0
 21 23  1  0  0  0
 14 15  1  0  0  0
 19 21  1  0  0  0
 19 20  1  0  0  0
  2  1  1  0  0  0
 23 24  1  0  0  0
M  END
> <minimizedAffinity>
-7.26794

$$$$
ligand_47


 24 27  0  0  0  0  0  0  0  0999 V2000
  -52.4119   -4.8397   74.5797 C   0  0  0  0  0  0  0  0  0  0  0  0
  -51.7206   -3.6146   73.9681 C   0  0  0  0  0  0  0  0  0  0  0  0
  -50.2849   -3.8902   73.6829 C   0  0  0  0  0  0  0  0  0  0  0  0
  -49.2222   -4.2750   74.5366 C   0  0  0  0  0  0  0  0  0  0  0  0
  -48.0893   -4.2881   73.7523 C   0  0  0  0  0  0  0  0  0  0  0  0
  -48.3871   -3.9402   72.4691 O   0  0  0  0  0  0  0  0  0  0  0  0
  -49.7195   -3.6989   72.4469 C   0  0  0  0  0  0  0  0  0  0  0  0
  -50.3717   -3.1973   71.2167 C   0  0  0  0  0  0  0  0  0  0  0  0
  -51.6095   -2.3505   71.6351 C   0  0  0  0  0  0  0  0  0  0  0  0
  -52.4946   -3.1160   72.6869 C   0  0  0  0  0  0  0  0  0  0  0  0
  -53.6507   -2.2263   73.1600 C   0  0  0  0  0  0  0  0  0  0  0  0
  -54.4190   -1.5548   72.0381 C   0  0  0  0  0  0  0  0  0  0  0  0
  -53.5015   -0.7614   71.0638 C   0  0  0  0  0  0  0  0  0  0  0  0
  -52.4479   -1.7414   70.4287 C   0  0  0  0  0  0  0  0  0  0  0  0
  -51.4538   -1.0228   69.4792 C   0  0  0  0  0  0  0  0  0  0  0  0
  -53.1892   -2.7952   69.5622 C   0  0  0  0  0  0  0  0  0  0  0  0
  -54.5118   -2.3202   68.9312 C   0  0  0  0  0  0  0  0  0  0  0  0
  -54.7384   -0.8090   68.8062 C   0  0  0  0  0  0  0  0  0  0  0  0
  -54.3232    0.0743   70.0149 C   0  0  0  0  0  0  0  0  0  0  0  0
  -55.5482    0.7407   70.6981 C   0  0  0  0  0  0  0  0  0  0  0  0
  -53.5096    1.2982   69.5170 C   0  0  0  0  0  0  0  0  0  0  0  0
  -52.9754    2.1257   70.2336 O   0  0  0  0  0  0  0  0  0  0  0  0
  -53.4867    1.4368   68.1661 O   0  0  0  0  0  0  0  0  0  0  0  0
  -54.0119    0.7791   67.6746 H   0  0  0  0  0  0  0  0  0  0  0  0
  2  3  1  0  0  0
  3  4  1  0  0  0
  4  5  2  0  0  0
  5  6  1  0  0  0
  6  7  1  0  0  0
  3  7  2  0  0  0
  7  8  1  0  0  0
  8  9  1  0  0  0
  9 10  1  0  0  0
  2 10  1  0  0  0
 10 11  1  0  0  0
 11 12  1  0  0  0
 12 13  1  0  0  0
 13 14  1  0  0  0
  9 14  1  0  0  0
 14 16  1  0  0  0
 16 17  1  0  0  0
 17 18  1  0  0  0
 18 19  1  0  0  0
 13 19  1  0  0  0
 21 22  2  0  0  0
 21 23  1  0  0  0
 14 15  1  0  0  0
 19 21  1  0  0  0
 19 20  1  0  0  0
  2  1  1  0  0  0
 23 24  1  0  0  0
M  END
> <minimizedAffinity>
-7.00637

$$$$
