ligand_15


 22 23  0  0  0  0  0  0  0  0999 V2000
  -52.5316   -1.2997   71.2672 C   0  0  0  0  0  0  0  0  0  0  0  0
  -51.9762   -0.3243   70.4364 C   0  0  0  0  0  0  0  0  0  0  0  0
  -50.6565   -0.4607   70.0193 C   0  0  0  0  0  0  0  0  0  0  0  0
  -50.0754    0.4564   69.1933 O   0  0  0  0  0  0  0  0  0  0  0  0
  -49.8755   -1.5364   70.4365 C   0  0  0  0  0  0  0  0  0  0  0  0
  -50.4058   -2.5160   71.2929 C   0  0  0  0  0  0  0  0  0  0  0  0
  -51.7487   -2.3801   71.7054 C   0  0  0  0  0  0  0  0  0  0  0  0
  -52.3896   -3.4164   72.5305 C   0  0  0  0  0  0  0  0  0  0  0  0
  -52.6365   -4.5375   72.1181 O   0  0  0  0  0  0  0  0  0  0  0  0
  -52.5607   -2.9272   73.7797 O   0  0  0  0  0  0  0  0  0  0  0  0
  -53.0443   -3.8065   74.8219 C   0  0  0  0  0  0  0  0  0  0  0  0
  -54.4789   -4.2502   74.5539 C   0  0  0  0  0  0  0  0  0  0  0  0
  -52.0853   -4.9818   75.0815 C   0  0  0  0  0  0  0  0  0  0  0  0
  -50.6537   -4.4965   75.3444 C   0  0  0  0  0  0  0  0  0  0  0  0
  -49.5986   -5.4927   74.8577 C   0  0  0  0  0  0  0  0  0  0  0  0
  -48.1953   -4.8780   74.8199 C   0  0  0  0  0  0  0  0  0  0  0  0
  -47.7313   -4.3739   73.4425 C   0  0  0  0  0  0  0  0  0  0  0  0
  -48.5246   -3.2030   72.8462 C   0  0  0  0  0  0  0  0  0  0  0  0
  -49.5106   -3.6464   71.7554 C   0  0  0  0  0  0  0  0  0  0  0  0
  -50.7237    1.1481   68.9818 H   0  0  0  0  0  0  0  0  0  0  0  0
  -54.3679    0.1139   71.4761 C   0  0  0  0  0  0  0  0  0  0  0  0
  -53.8186   -1.1781   71.7262 O   0  0  0  0  0  0  0  0  0  0  0  0
 21 22  1  0  0  0
 22  1  1  0  0  0
  1  2  2  0  0  0
  2  3  1  0  0  0
  3  4  1  0  0  0
  3  5  2  0  0  0
  5  6  1  0  0  0
  6  7  2  0  0  0
  1  7  1  0  0  0
  7  8  1  0  0  0
  8  9  2  0  0  0
  8 10  1  0  0  0
 10 11  1  0  0  0
 11 12  1  0  0  0
 11 13  1  0  0  0
 13 14  1  0  0  0
 14 15  1  0  0  0
 15 16  1  0  0  0
 16 17  1  0  0  0
 17 18  1  0  0  0
 18 19  1  0  0  0
  6 19  1  0  0  0
  4 20  1  0  0  0
M  END
> <minimizedAffinity>
-7.51868

$$$$
ligand_15


 22 23  0  0  0  0  0  0  0  0999 V2000
  -53.4876   -4.5477   74.4183 C   0  0  0  0  0  0  0  0  0  0  0  0
  -52.7940   -5.4288   75.2504 C   0  0  0  0  0  0  0  0  0  0  0  0
  -51.4148   -5.2999   75.3747 C   0  0  0  0  0  0  0  0  0  0  0  0
  -50.6959   -6.1252   76.1889 O   0  0  0  0  0  0  0  0  0  0  0  0
  -50.7143   -4.3269   74.6651 C   0  0  0  0  0  0  0  0  0  0  0  0
  -51.3885   -3.4461   73.8024 C   0  0  0  0  0  0  0  0  0  0  0  0
  -52.7894   -3.5728   73.6872 C   0  0  0  0  0  0  0  0  0  0  0  0
  -53.5644   -2.6266   72.8690 C   0  0  0  0  0  0  0  0  0  0  0  0
  -53.7014   -1.4504   73.1614 O   0  0  0  0  0  0  0  0  0  0  0  0
  -53.9943   -3.2690   71.7592 O   0  0  0  0  0  0  0  0  0  0  0  0
  -54.6623   -2.5145   70.7210 C   0  0  0  0  0  0  0  0  0  0  0  0
  -56.0041   -1.9726   71.2033 C   0  0  0  0  0  0  0  0  0  0  0  0
  -53.7537   -1.4301   70.1151 C   0  0  0  0  0  0  0  0  0  0  0  0
  -52.4145   -2.0124   69.6443 C   0  0  0  0  0  0  0  0  0  0  0  0
  -51.2640   -1.0107   69.7684 C   0  0  0  0  0  0  0  0  0  0  0  0
  -49.8940   -1.6797   69.6130 C   0  0  0  0  0  0  0  0  0  0  0  0
  -49.1702   -2.0174   70.9278 C   0  0  0  0  0  0  0  0  0  0  0  0
  -49.8483   -3.0603   71.8269 C   0  0  0  0  0  0  0  0  0  0  0  0
  -50.5843   -2.4303   73.0186 C   0  0  0  0  0  0  0  0  0  0  0  0
  -51.3009   -6.7517   76.6191 H   0  0  0  0  0  0  0  0  0  0  0  0
  -55.5685   -4.4716   75.4564 C   0  0  0  0  0  0  0  0  0  0  0  0
  -54.8430   -4.6690   74.2447 O   0  0  0  0  0  0  0  0  0  0  0  0
 21 22  1  0  0  0
 22  1  1  0  0  0
  1  2  2  0  0  0
  2  3  1  0  0  0
  3  4  1  0  0  0
  3  5  2  0  0  0
  5  6  1  0  0  0
  6  7  2  0  0  0
  1  7  1  0  0  0
  7  8  1  0  0  0
  8  9  2  0  0  0
  8 10  1  0  0  0
 10 11  1  0  0  0
 11 12  1  0  0  0
 11 13  1  0  0  0
 13 14  1  0  0  0
 14 15  1  0  0  0
 15 16  1  0  0  0
 16 17  1  0  0  0
 17 18  1  0  0  0
 18 19  1  0  0  0
  6 19  1  0  0  0
  4 20  1  0  0  0
M  END
> <minimizedAffinity>
-7.50347

$$$$
ligand_15


 22 23  0  0  0  0  0  0  0  0999 V2000
  -52.0067   -2.8993   72.9916 C   0  0  0  0  0  0  0  0  0  0  0  0
  -50.7292   -3.4005   73.2501 C   0  0  0  0  0  0  0  0  0  0  0  0
  -49.8071   -3.4743   72.2117 C   0  0  0  0  0  0  0  0  0  0  0  0
  -48.5417   -3.9398   72.4186 O   0  0  0  0  0  0  0  0  0  0  0  0
  -50.1446   -3.0824   70.9180 C   0  0  0  0  0  0  0  0  0  0  0  0
  -51.4321   -2.5990   70.6297 C   0  0  0  0  0  0  0  0  0  0  0  0
  -52.3618   -2.5153   71.6882 C   0  0  0  0  0  0  0  0  0  0  0  0
  -53.6972   -1.9367   71.4710 C   0  0  0  0  0  0  0  0  0  0  0  0
  -53.8795   -0.7558   71.2262 O   0  0  0  0  0  0  0  0  0  0  0  0
  -54.6104   -2.9334   71.5145 O   0  0  0  0  0  0  0  0  0  0  0  0
  -55.9893   -2.6422   71.1871 C   0  0  0  0  0  0  0  0  0  0  0  0
  -56.6207   -1.7112   72.2174 C   0  0  0  0  0  0  0  0  0  0  0  0
  -56.1496   -2.1422   69.7405 C   0  0  0  0  0  0  0  0  0  0  0  0
  -55.5008   -3.1024   68.7349 C   0  0  0  0  0  0  0  0  0  0  0  0
  -54.9527   -2.3781   67.5029 C   0  0  0  0  0  0  0  0  0  0  0  0
  -54.0306   -3.2728   66.6675 C   0  0  0  0  0  0  0  0  0  0  0  0
  -52.5241   -3.0836   66.9151 C   0  0  0  0  0  0  0  0  0  0  0  0
  -52.0153   -3.4523   68.3154 C   0  0  0  0  0  0  0  0  0  0  0  0
  -51.7702   -2.2227   69.2024 C   0  0  0  0  0  0  0  0  0  0  0  0
  -48.4406   -4.1774   73.3551 H   0  0  0  0  0  0  0  0  0  0  0  0
  -53.1903   -4.1193   74.5805 C   0  0  0  0  0  0  0  0  0  0  0  0
  -52.9520   -2.8459   73.9844 O   0  0  0  0  0  0  0  0  0  0  0  0
 21 22  1  0  0  0
 22  1  1  0  0  0
  1  2  2  0  0  0
  2  3  1  0  0  0
  3  4  1  0  0  0
  3  5  2  0  0  0
  5  6  1  0  0  0
  6  7  2  0  0  0
  1  7  1  0  0  0
  7  8  1  0  0  0
  8  9  2  0  0  0
  8 10  1  0  0  0
 10 11  1  0  0  0
 11 12  1  0  0  0
 11 13  1  0  0  0
 13 14  1  0  0  0
 14 15  1  0  0  0
 15 16  1  0  0  0
 16 17  1  0  0  0
 17 18  1  0  0  0
 18 19  1  0  0  0
  6 19  1  0  0  0
  4 20  1  0  0  0
M  END
> <minimizedAffinity>
-7.24512

$$$$
ligand_15


 22 23  0  0  0  0  0  0  0  0999 V2000
  -53.2098   -3.3233   72.8107 C   0  0  0  0  0  0  0  0  0  0  0  0
  -54.4730   -3.7825   73.1896 C   0  0  0  0  0  0  0  0  0  0  0  0
  -54.6204   -4.4304   74.4113 C   0  0  0  0  0  0  0  0  0  0  0  0
  -55.8371   -4.8808   74.8330 O   0  0  0  0  0  0  0  0  0  0  0  0
  -53.5280   -4.6507   75.2475 C   0  0  0  0  0  0  0  0  0  0  0  0
  -52.2435   -4.2200   74.8750 C   0  0  0  0  0  0  0  0  0  0  0  0
  -52.0995   -3.5532   73.6395 C   0  0  0  0  0  0  0  0  0  0  0  0
  -50.7983   -3.0006   73.2312 C   0  0  0  0  0  0  0  0  0  0  0  0
  -50.2693   -2.0569   73.7947 O   0  0  0  0  0  0  0  0  0  0  0  0
  -50.3064   -3.7569   72.2236 O   0  0  0  0  0  0  0  0  0  0  0  0
  -48.9667   -3.5032   71.7397 C   0  0  0  0  0  0  0  0  0  0  0  0
  -48.8677   -2.1376   71.0673 C   0  0  0  0  0  0  0  0  0  0  0  0
  -47.9042   -3.7189   72.8319 C   0  0  0  0  0  0  0  0  0  0  0  0
  -48.0372   -5.1006   73.4856 C   0  0  0  0  0  0  0  0  0  0  0  0
  -47.6126   -5.0965   74.9561 C   0  0  0  0  0  0  0  0  0  0  0  0
  -48.0463   -6.3713   75.6879 C   0  0  0  0  0  0  0  0  0  0  0  0
  -49.3419   -6.2538   76.5090 C   0  0  0  0  0  0  0  0  0  0  0  0
  -50.6264   -5.9821   75.7141 C   0  0  0  0  0  0  0  0  0  0  0  0
  -51.0769   -4.5160   75.7940 C   0  0  0  0  0  0  0  0  0  0  0  0
  -56.5050   -4.6652   74.1614 H   0  0  0  0  0  0  0  0  0  0  0  0
  -53.6574   -1.4377   71.5232 C   0  0  0  0  0  0  0  0  0  0  0  0
  -53.0220   -2.7122   71.5970 O   0  0  0  0  0  0  0  0  0  0  0  0
 21 22  1  0  0  0
 22  1  1  0  0  0
  1  2  2  0  0  0
  2  3  1  0  0  0
  3  4  1  0  0  0
  3  5  2  0  0  0
  5  6  1  0  0  0
  6  7  2  0  0  0
  1  7  1  0  0  0
  7  8  1  0  0  0
  8  9  2  0  0  0
  8 10  1  0  0  0
 10 11  1  0  0  0
 11 12  1  0  0  0
 11 13  1  0  0  0
 13 14  1  0  0  0
 14 15  1  0  0  0
 15 16  1  0  0  0
 16 17  1  0  0  0
 17 18  1  0  0  0
 18 19  1  0  0  0
  6 19  1  0  0  0
  4 20  1  0  0  0
M  END
> <minimizedAffinity>
-7.16698

$$$$
ligand_15


 22 23  0  0  0  0  0  0  0  0999 V2000
  -50.4277   -2.1901   70.1711 C   0  0  0  0  0  0  0  0  0  0  0  0
  -49.2149   -2.2207   70.8626 C   0  0  0  0  0  0  0  0  0  0  0  0
  -49.1469   -2.8849   72.0826 C   0  0  0  0  0  0  0  0  0  0  0  0
  -47.9807   -2.9575   72.7865 O   0  0  0  0  0  0  0  0  0  0  0  0
  -50.2708   -3.4948   72.6357 C   0  0  0  0  0  0  0  0  0  0  0  0
  -51.5074   -3.4545   71.9696 C   0  0  0  0  0  0  0  0  0  0  0  0
  -51.5701   -2.7890   70.7266 C   0  0  0  0  0  0  0  0  0  0  0  0
  -52.8125   -2.7859   69.9380 C   0  0  0  0  0  0  0  0  0  0  0  0
  -53.2732   -3.7882   69.4173 O   0  0  0  0  0  0  0  0  0  0  0  0
  -53.3442   -1.5430   69.9774 O   0  0  0  0  0  0  0  0  0  0  0  0
  -54.6481   -1.3142   69.3935 C   0  0  0  0  0  0  0  0  0  0  0  0
  -54.6200   -1.5008   67.8798 C   0  0  0  0  0  0  0  0  0  0  0  0
  -55.7472   -2.1400   70.0851 C   0  0  0  0  0  0  0  0  0  0  0  0
  -55.7424   -1.9280   71.6048 C   0  0  0  0  0  0  0  0  0  0  0  0
  -56.1956   -3.1727   72.3715 C   0  0  0  0  0  0  0  0  0  0  0  0
  -55.8840   -3.0761   73.8689 C   0  0  0  0  0  0  0  0  0  0  0  0
  -54.6004   -3.7912   74.3245 C   0  0  0  0  0  0  0  0  0  0  0  0
  -53.2816   -3.2386   73.7667 C   0  0  0  0  0  0  0  0  0  0  0  0
  -52.7132   -4.0944   72.6251 C   0  0  0  0  0  0  0  0  0  0  0  0
  -47.2834   -2.4946   72.2933 H   0  0  0  0  0  0  0  0  0  0  0  0
  -50.2333   -0.1270   69.1130 C   0  0  0  0  0  0  0  0  0  0  0  0
  -50.5392   -1.5137   68.9828 O   0  0  0  0  0  0  0  0  0  0  0  0
 21 22  1  0  0  0
 22  1  1  0  0  0
  1  2  2  0  0  0
  2  3  1  0  0  0
  3  4  1  0  0  0
  3  5  2  0  0  0
  5  6  1  0  0  0
  6  7  2  0  0  0
  1  7  1  0  0  0
  7  8  1  0  0  0
  8  9  2  0  0  0
  8 10  1  0  0  0
 10 11  1  0  0  0
 11 12  1  0  0  0
 11 13  1  0  0  0
 13 14  1  0  0  0
 14 15  1  0  0  0
 15 16  1  0  0  0
 16 17  1  0  0  0
 17 18  1  0  0  0
 18 19  1  0  0  0
  6 19  1  0  0  0
  4 20  1  0  0  0
M  END
> <minimizedAffinity>
-7.10888

$$$$
