ligand_50


 34 39  0  0  0  0  0  0  0  0999 V2000
  -46.0229   -4.1509   74.1194 C   0  0  0  0  0  0  0  0  0  0  0  0
  -47.4887   -4.4399   73.7256 C   0  0  0  0  0  0  0  0  0  0  0  0
  -47.6253   -5.9863   73.5940 C   0  0  0  0  0  0  0  0  0  0  0  0
  -48.4271   -4.0206   74.9106 C   0  0  0  0  0  0  0  0  0  0  0  0
  -49.9198   -4.3043   74.6531 C   0  0  0  0  0  0  0  0  0  0  0  0
  -50.1889   -4.1485   73.1768 C   0  0  0  0  0  0  0  0  0  0  0  0
  -51.8620   -3.9451   72.6396 C   0  0  0  0  0  0  0  0  0  0  0  0
  -52.0309   -2.4507   71.6253 O   0  0  0  0  0  0  0  0  0  0  0  0
  -50.3629   -1.7074   71.3426 C   0  0  0  0  0  0  0  0  0  0  0  0
  -50.6570   -0.2210   71.4624 C   0  0  0  0  0  0  0  0  0  0  0  0
  -52.0243    0.0800   70.8101 C   0  0  0  0  0  0  0  0  0  0  0  0
  -52.3005   -0.4917   69.3837 C   0  0  0  0  0  0  0  0  0  0  0  0
  -53.8715   -0.6394   69.0079 C   0  0  0  0  0  0  0  0  0  0  0  0
  -54.0517   -0.6127   67.4365 C   0  0  0  0  0  0  0  0  0  0  0  0
  -54.7173    0.6045   69.4356 C   0  0  0  0  0  0  0  0  0  0  0  0
  -56.1263    0.2712   69.9201 C   0  0  0  0  0  0  0  0  0  0  0  0
  -56.0963   -0.6658   71.1127 C   0  0  0  0  0  0  0  0  0  0  0  0
  -55.4937   -0.0016   72.2253 O   0  0  0  0  0  0  0  0  0  0  0  0
  -55.4537   -2.0464   70.7749 C   0  0  0  0  0  0  0  0  0  0  0  0
  -56.6315   -3.0087   70.4113 C   0  0  0  0  0  0  0  0  0  0  0  0
  -54.8716   -2.6486   72.0649 C   0  0  0  0  0  0  0  0  0  0  0  0
  -54.4930   -2.0075   69.4846 C   0  0  0  0  0  0  0  0  0  0  0  0
  -53.5364   -3.2161   69.3033 C   0  0  0  0  0  0  0  0  0  0  0  0
  -52.2437   -2.9641   68.5150 C   0  0  0  0  0  0  0  0  0  0  0  0
  -51.3827   -1.7356   68.9451 C   0  0  0  0  0  0  0  0  0  0  0  0
  -50.7076   -1.2512   67.6050 C   0  0  0  0  0  0  0  0  0  0  0  0
  -50.2055   -2.1853   69.9782 C   0  0  0  0  0  0  0  0  0  0  0  0
  -48.7779   -1.8162   69.5301 C   0  0  0  0  0  0  0  0  0  0  0  0
  -50.3669   -3.4263   70.8329 C   0  0  0  0  0  0  0  0  0  0  0  0
  -50.6040   -2.9682   72.7878 C   0  0  0  0  0  0  0  0  0  0  0  0
  -50.9501   -2.0442   73.5579 O   0  0  0  0  0  0  0  0  0  0  0  0
  -49.1290   -2.7631   72.5243 C   0  0  0  0  0  0  0  0  0  0  0  0
  -47.8391   -3.6709   72.3394 C   0  0  0  0  0  0  0  0  0  0  0  0
  -54.6346    0.3604   71.9597 H   0  0  0  0  0  0  0  0  0  0  0  0
  1  2  1  0  0  0
  2  3  1  0  0  0
  2  4  1  0  0  0
  4  5  1  0  0  0
  5  6  1  0  0  0
  6  7  1  0  0  0
  7  8  1  0  0  0
  8  9  1  0  0  0
  9 10  1  0  0  0
 10 11  1  0  0  0
 11 12  1  0  0  0
 12 13  1  0  0  0
 13 14  1  0  0  0
 13 15  1  0  0  0
 15 16  1  0  0  0
 16 17  1  0  0  0
 17 18  1  0  0  0
 17 19  1  0  0  0
 19 20  1  0  0  0
 19 21  1  0  0  0
 19 22  1  0  0  0
 13 22  1  0  0  0
 22 23  1  0  0  0
 23 24  1  0  0  0
 24 25  1  0  0  0
 12 25  1  0  0  0
 25 26  1  0  0  0
 25 27  1  0  0  0
  9 27  1  0  0  0
 27 28  1  0  0  0
 27 29  1  0  0  0
 29 30  1  0  0  0
  6 30  1  0  0  0
 30 31  2  0  0  0
  9 32  1  0  0  0
  6 32  1  0  0  0
 32 33  1  0  0  0
  2 33  1  0  0  0
 18 34  1  0  0  0
M  END
> <minimizedAffinity>
-6.39946

$$$$
ligand_50


 34 39  0  0  0  0  0  0  0  0999 V2000
  -47.7929   -4.8991   76.2701 C   0  0  0  0  0  0  0  0  0  0  0  0
  -49.0946   -5.0790   75.4575 C   0  0  0  0  0  0  0  0  0  0  0  0
  -49.3409   -6.6122   75.3313 C   0  0  0  0  0  0  0  0  0  0  0  0
  -50.2977   -4.5133   76.2901 C   0  0  0  0  0  0  0  0  0  0  0  0
  -51.6653   -4.6780   75.5991 C   0  0  0  0  0  0  0  0  0  0  0  0
  -51.4624   -4.5812   74.1073 C   0  0  0  0  0  0  0  0  0  0  0  0
  -52.8681   -4.2611   73.0822 C   0  0  0  0  0  0  0  0  0  0  0  0
  -52.5735   -2.8163   72.0257 O   0  0  0  0  0  0  0  0  0  0  0  0
  -50.8313   -2.2399   72.2435 C   0  0  0  0  0  0  0  0  0  0  0  0
  -50.9962   -0.7290   72.2292 C   0  0  0  0  0  0  0  0  0  0  0  0
  -52.0674   -0.3452   71.1849 C   0  0  0  0  0  0  0  0  0  0  0  0
  -51.9598   -0.9686   69.7575 C   0  0  0  0  0  0  0  0  0  0  0  0
  -53.3524   -0.9976   68.9264 C   0  0  0  0  0  0  0  0  0  0  0  0
  -53.0498   -1.0424   67.3744 C   0  0  0  0  0  0  0  0  0  0  0  0
  -54.1574    0.3379   69.0443 C   0  0  0  0  0  0  0  0  0  0  0  0
  -55.6729    0.1578   69.0867 C   0  0  0  0  0  0  0  0  0  0  0  0
  -56.0964   -0.7105   70.2563 C   0  0  0  0  0  0  0  0  0  0  0  0
  -55.7912   -0.0413   71.4815 O   0  0  0  0  0  0  0  0  0  0  0  0
  -55.5250   -2.1591   70.1659 C   0  0  0  0  0  0  0  0  0  0  0  0
  -56.6305   -3.0324   69.4871 C   0  0  0  0  0  0  0  0  0  0  0  0
  -55.4201   -2.7378   71.5871 C   0  0  0  0  0  0  0  0  0  0  0  0
  -54.2229   -2.2769   69.2276 C   0  0  0  0  0  0  0  0  0  0  0  0
  -53.3832   -3.5735   69.3772 C   0  0  0  0  0  0  0  0  0  0  0  0
  -51.8952   -3.4808   69.0122 C   0  0  0  0  0  0  0  0  0  0  0  0
  -51.0831   -2.3111   69.6511 C   0  0  0  0  0  0  0  0  0  0  0  0
  -49.9922   -1.9634   68.5671 C   0  0  0  0  0  0  0  0  0  0  0  0
  -50.3213   -2.8049   71.0043 C   0  0  0  0  0  0  0  0  0  0  0  0
  -48.7955   -2.5887   71.0014 C   0  0  0  0  0  0  0  0  0  0  0  0
  -50.8559   -3.9774   71.8018 C   0  0  0  0  0  0  0  0  0  0  0  0
  -51.6204   -3.3923   73.5797 C   0  0  0  0  0  0  0  0  0  0  0  0
  -52.0863   -2.4001   74.1839 O   0  0  0  0  0  0  0  0  0  0  0  0
  -50.1215   -3.3332   73.7713 C   0  0  0  0  0  0  0  0  0  0  0  0
  -48.9340   -4.3602   74.0107 C   0  0  0  0  0  0  0  0  0  0  0  0
  -54.8600    0.2280   71.4799 H   0  0  0  0  0  0  0  0  0  0  0  0
  1  2  1  0  0  0
  2  3  1  0  0  0
  2  4  1  0  0  0
  4  5  1  0  0  0
  5  6  1  0  0  0
  6  7  1  0  0  0
  7  8  1  0  0  0
  8  9  1  0  0  0
  9 10  1  0  0  0
 10 11  1  0  0  0
 11 12  1  0  0  0
 12 13  1  0  0  0
 13 14  1  0  0  0
 13 15  1  0  0  0
 15 16  1  0  0  0
 16 17  1  0  0  0
 17 18  1  0  0  0
 17 19  1  0  0  0
 19 20  1  0  0  0
 19 21  1  0  0  0
 19 22  1  0  0  0
 13 22  1  0  0  0
 22 23  1  0  0  0
 23 24  1  0  0  0
 24 25  1  0  0  0
 12 25  1  0  0  0
 25 26  1  0  0  0
 25 27  1  0  0  0
  9 27  1  0  0  0
 27 28  1  0  0  0
 27 29  1  0  0  0
 29 30  1  0  0  0
  6 30  1  0  0  0
 30 31  2  0  0  0
  9 32  1  0  0  0
  6 32  1  0  0  0
 32 33  1  0  0  0
  2 33  1  0  0  0
 18 34  1  0  0  0
M  END
> <minimizedAffinity>
-6.31566

$$$$
ligand_50


 34 39  0  0  0  0  0  0  0  0999 V2000
  -54.5313    6.9956   65.8414 C   0  0  0  0  0  0  0  0  0  0  0  0
  -55.1529    5.6148   66.1480 C   0  0  0  0  0  0  0  0  0  0  0  0
  -56.6293    5.6633   65.6528 C   0  0  0  0  0  0  0  0  0  0  0  0
  -54.4370    4.5277   65.2725 C   0  0  0  0  0  0  0  0  0  0  0  0
  -55.0040    3.1067   65.4576 C   0  0  0  0  0  0  0  0  0  0  0  0
  -55.4797    2.9631   66.8821 C   0  0  0  0  0  0  0  0  0  0  0  0
  -55.7389    1.3362   67.5266 C   0  0  0  0  0  0  0  0  0  0  0  0
  -54.8024    1.0998   69.0620 O   0  0  0  0  0  0  0  0  0  0  0  0
  -54.0053    2.6945   69.5481 C   0  0  0  0  0  0  0  0  0  0  0  0
  -52.6481    2.2276   70.0484 C   0  0  0  0  0  0  0  0  0  0  0  0
  -52.8212    0.9034   70.8242 C   0  0  0  0  0  0  0  0  0  0  0  0
  -53.9396    0.8285   71.9110 C   0  0  0  0  0  0  0  0  0  0  0  0
  -54.4403   -0.6738   72.2625 C   0  0  0  0  0  0  0  0  0  0  0  0
  -55.0583   -0.7062   73.7183 C   0  0  0  0  0  0  0  0  0  0  0  0
  -53.2594   -1.6888   72.4070 C   0  0  0  0  0  0  0  0  0  0  0  0
  -53.5683   -3.0917   71.8900 C   0  0  0  0  0  0  0  0  0  0  0  0
  -53.9475   -3.0713   70.4212 C   0  0  0  0  0  0  0  0  0  0  0  0
  -52.8228   -2.6541   69.6447 O   0  0  0  0  0  0  0  0  0  0  0  0
  -55.2457   -2.2507   70.1482 C   0  0  0  0  0  0  0  0  0  0  0  0
  -56.4274   -3.2750   70.1444 C   0  0  0  0  0  0  0  0  0  0  0  0
  -55.2053   -1.7303   68.7014 C   0  0  0  0  0  0  0  0  0  0  0  0
  -55.5833   -1.1824   71.3032 C   0  0  0  0  0  0  0  0  0  0  0  0
  -56.6199   -0.0850   70.9426 C   0  0  0  0  0  0  0  0  0  0  0  0
  -56.5204    1.2406   71.7099 C   0  0  0  0  0  0  0  0  0  0  0  0
  -55.1147    1.9158   71.7734 C   0  0  0  0  0  0  0  0  0  0  0  0
  -55.1067    2.6570   73.1651 C   0  0  0  0  0  0  0  0  0  0  0  0
  -54.9537    3.0323   70.5975 C   0  0  0  0  0  0  0  0  0  0  0  0
  -54.5953    4.4462   71.0948 C   0  0  0  0  0  0  0  0  0  0  0  0
  -55.7686    2.9290   69.3240 C   0  0  0  0  0  0  0  0  0  0  0  0
  -54.6174    2.4586   67.7299 C   0  0  0  0  0  0  0  0  0  0  0  0
  -53.5232    1.9410   67.4114 O   0  0  0  0  0  0  0  0  0  0  0  0
  -54.3290    3.9201   67.9904 C   0  0  0  0  0  0  0  0  0  0  0  0
  -55.0471    5.3142   67.7399 C   0  0  0  0  0  0  0  0  0  0  0  0
  -52.4784   -1.8190   69.9965 H   0  0  0  0  0  0  0  0  0  0  0  0
  1  2  1  0  0  0
  2  3  1  0  0  0
  2  4  1  0  0  0
  4  5  1  0  0  0
  5  6  1  0  0  0
  6  7  1  0  0  0
  7  8  1  0  0  0
  8  9  1  0  0  0
  9 10  1  0  0  0
 10 11  1  0  0  0
 11 12  1  0  0  0
 12 13  1  0  0  0
 13 14  1  0  0  0
 13 15  1  0  0  0
 15 16  1  0  0  0
 16 17  1  0  0  0
 17 18  1  0  0  0
 17 19  1  0  0  0
 19 20  1  0  0  0
 19 21  1  0  0  0
 19 22  1  0  0  0
 13 22  1  0  0  0
 22 23  1  0  0  0
 23 24  1  0  0  0
 24 25  1  0  0  0
 12 25  1  0  0  0
 25 26  1  0  0  0
 25 27  1  0  0  0
  9 27  1  0  0  0
 27 28  1  0  0  0
 27 29  1  0  0  0
 29 30  1  0  0  0
  6 30  1  0  0  0
 30 31  2  0  0  0
  9 32  1  0  0  0
  6 32  1  0  0  0
 32 33  1  0  0  0
  2 33  1  0  0  0
 18 34  1  0  0  0
M  END
> <minimizedAffinity>
-5.85069

$$$$
ligand_50


 34 39  0  0  0  0  0  0  0  0999 V2000
  -49.7892   -6.6294   76.2210 C   0  0  0  0  0  0  0  0  0  0  0  0
  -49.9415   -5.1912   75.6774 C   0  0  0  0  0  0  0  0  0  0  0  0
  -49.5183   -4.2265   76.8253 C   0  0  0  0  0  0  0  0  0  0  0  0
  -48.9047   -4.9708   74.5210 C   0  0  0  0  0  0  0  0  0  0  0  0
  -48.9292   -3.5498   73.9252 C   0  0  0  0  0  0  0  0  0  0  0  0
  -50.3419   -3.0252   73.9965 C   0  0  0  0  0  0  0  0  0  0  0  0
  -50.7823   -1.6431   72.9841 C   0  0  0  0  0  0  0  0  0  0  0  0
  -52.2345   -2.0310   71.9686 O   0  0  0  0  0  0  0  0  0  0  0  0
  -52.8879   -3.6941   72.4396 C   0  0  0  0  0  0  0  0  0  0  0  0
  -53.2673   -4.2768   71.0880 C   0  0  0  0  0  0  0  0  0  0  0  0
  -53.8732   -3.1624   70.2068 C   0  0  0  0  0  0  0  0  0  0  0  0
  -54.9868   -2.2596   70.8252 C   0  0  0  0  0  0  0  0  0  0  0  0
  -55.1629   -0.8163   70.1062 C   0  0  0  0  0  0  0  0  0  0  0  0
  -56.6269   -0.2697   70.3521 C   0  0  0  0  0  0  0  0  0  0  0  0
  -55.1268   -0.9074   68.5454 C   0  0  0  0  0  0  0  0  0  0  0  0
  -54.4472    0.2762   67.8613 C   0  0  0  0  0  0  0  0  0  0  0  0
  -53.0102    0.4334   68.3215 C   0  0  0  0  0  0  0  0  0  0  0  0
  -52.2477   -0.6984   67.8975 O   0  0  0  0  0  0  0  0  0  0  0  0
  -52.8989    0.7370   69.8475 C   0  0  0  0  0  0  0  0  0  0  0  0
  -52.8126    2.2922   69.9870 C   0  0  0  0  0  0  0  0  0  0  0  0
  -51.5305    0.2461   70.3497 C   0  0  0  0  0  0  0  0  0  0  0  0
  -54.1945    0.2836   70.6873 C   0  0  0  0  0  0  0  0  0  0  0  0
  -54.0211    0.2017   72.2274 C   0  0  0  0  0  0  0  0  0  0  0  0
  -54.9475   -0.7648   72.9781 C   0  0  0  0  0  0  0  0  0  0  0  0
  -55.0388   -2.2236   72.4308 C   0  0  0  0  0  0  0  0  0  0  0  0
  -56.5126   -2.6699   72.7699 C   0  0  0  0  0  0  0  0  0  0  0  0
  -54.0104   -3.2068   73.2252 C   0  0  0  0  0  0  0  0  0  0  0  0
  -54.6699   -4.4340   73.8839 C   0  0  0  0  0  0  0  0  0  0  0  0
  -52.7691   -2.6448   73.8884 C   0  0  0  0  0  0  0  0  0  0  0  0
  -51.0814   -3.2136   72.9313 C   0  0  0  0  0  0  0  0  0  0  0  0
  -50.6540   -3.6283   71.8305 O   0  0  0  0  0  0  0  0  0  0  0  0
  -51.5153   -4.4409   73.7011 C   0  0  0  0  0  0  0  0  0  0  0  0
  -51.4758   -4.9499   75.2049 C   0  0  0  0  0  0  0  0  0  0  0  0
  -52.6892   -1.5121   68.1847 H   0  0  0  0  0  0  0  0  0  0  0  0
  1  2  1  0  0  0
  2  3  1  0  0  0
  2  4  1  0  0  0
  4  5  1  0  0  0
  5  6  1  0  0  0
  6  7  1  0  0  0
  7  8  1  0  0  0
  8  9  1  0  0  0
  9 10  1  0  0  0
 10 11  1  0  0  0
 11 12  1  0  0  0
 12 13  1  0  0  0
 13 14  1  0  0  0
 13 15  1  0  0  0
 15 16  1  0  0  0
 16 17  1  0  0  0
 17 18  1  0  0  0
 17 19  1  0  0  0
 19 20  1  0  0  0
 19 21  1  0  0  0
 19 22  1  0  0  0
 13 22  1  0  0  0
 22 23  1  0  0  0
 23 24  1  0  0  0
 24 25  1  0  0  0
 12 25  1  0  0  0
 25 26  1  0  0  0
 25 27  1  0  0  0
  9 27  1  0  0  0
 27 28  1  0  0  0
 27 29  1  0  0  0
 29 30  1  0  0  0
  6 30  1  0  0  0
 30 31  2  0  0  0
  9 32  1  0  0  0
  6 32  1  0  0  0
 32 33  1  0  0  0
  2 33  1  0  0  0
 18 34  1  0  0  0
M  END
> <minimizedAffinity>
-5.79530

$$$$
ligand_50


 34 39  0  0  0  0  0  0  0  0999 V2000
  -56.6320    5.5939   67.5696 C   0  0  0  0  0  0  0  0  0  0  0  0
  -55.3405    4.8683   68.0083 C   0  0  0  0  0  0  0  0  0  0  0  0
  -54.1494    5.6279   67.3514 C   0  0  0  0  0  0  0  0  0  0  0  0
  -55.1616    5.0377   69.5576 C   0  0  0  0  0  0  0  0  0  0  0  0
  -53.8765    4.3914   70.1104 C   0  0  0  0  0  0  0  0  0  0  0  0
  -53.5617    3.1693   69.2836 C   0  0  0  0  0  0  0  0  0  0  0  0
  -52.4440    1.9675   69.9437 C   0  0  0  0  0  0  0  0  0  0  0  0
  -53.2028    0.3198   69.9425 O   0  0  0  0  0  0  0  0  0  0  0  0
  -54.8445    0.3992   69.0979 C   0  0  0  0  0  0  0  0  0  0  0  0
  -55.6898   -0.5168   69.9677 C   0  0  0  0  0  0  0  0  0  0  0  0
  -54.8363   -1.7248   70.4121 C   0  0  0  0  0  0  0  0  0  0  0  0
  -54.0188   -2.4883   69.3228 C   0  0  0  0  0  0  0  0  0  0  0  0
  -52.7545   -3.3294   69.8930 C   0  0  0  0  0  0  0  0  0  0  0  0
  -52.3972   -4.5032   68.8946 C   0  0  0  0  0  0  0  0  0  0  0  0
  -53.0934   -4.1259   71.1954 C   0  0  0  0  0  0  0  0  0  0  0  0
  -51.9504   -4.1969   72.2052 C   0  0  0  0  0  0  0  0  0  0  0  0
  -51.5098   -2.8131   72.6434 C   0  0  0  0  0  0  0  0  0  0  0  0
  -52.5706   -2.1809   73.3625 O   0  0  0  0  0  0  0  0  0  0  0  0
  -50.9477   -1.9609   71.4640 C   0  0  0  0  0  0  0  0  0  0  0  0
  -49.3951   -2.1477   71.4801 C   0  0  0  0  0  0  0  0  0  0  0  0
  -51.1425   -0.4715   71.7947 C   0  0  0  0  0  0  0  0  0  0  0  0
  -51.4437   -2.4625   70.0177 C   0  0  0  0  0  0  0  0  0  0  0  0
  -51.2462   -1.4699   68.8411 C   0  0  0  0  0  0  0  0  0  0  0  0
  -52.2029   -1.6098   67.6490 C   0  0  0  0  0  0  0  0  0  0  0  0
  -53.7288   -1.6686   67.9715 C   0  0  0  0  0  0  0  0  0  0  0  0
  -54.3261   -2.5877   66.8380 C   0  0  0  0  0  0  0  0  0  0  0  0
  -54.4062   -0.1921   67.8436 C   0  0  0  0  0  0  0  0  0  0  0  0
  -55.5929   -0.1091   66.8639 C   0  0  0  0  0  0  0  0  0  0  0  0
  -53.5664    1.0562   68.0258 C   0  0  0  0  0  0  0  0  0  0  0  0
  -54.0288    2.0315   69.7354 C   0  0  0  0  0  0  0  0  0  0  0  0
  -54.5502    1.8714   70.8619 O   0  0  0  0  0  0  0  0  0  0  0  0
  -55.1641    2.3581   68.7912 C   0  0  0  0  0  0  0  0  0  0  0  0
  -55.4088    3.3134   67.5464 C   0  0  0  0  0  0  0  0  0  0  0  0
  -53.3825   -2.2103   72.8339 H   0  0  0  0  0  0  0  0  0  0  0  0
  1  2  1  0  0  0
  2  3  1  0  0  0
  2  4  1  0  0  0
  4  5  1  0  0  0
  5  6  1  0  0  0
  6  7  1  0  0  0
  7  8  1  0  0  0
  8  9  1  0  0  0
  9 10  1  0  0  0
 10 11  1  0  0  0
 11 12  1  0  0  0
 12 13  1  0  0  0
 13 14  1  0  0  0
 13 15  1  0  0  0
 15 16  1  0  0  0
 16 17  1  0  0  0
 17 18  1  0  0  0
 17 19  1  0  0  0
 19 20  1  0  0  0
 19 21  1  0  0  0
 19 22  1  0  0  0
 13 22  1  0  0  0
 22 23  1  0  0  0
 23 24  1  0  0  0
 24 25  1  0  0  0
 12 25  1  0  0  0
 25 26  1  0  0  0
 25 27  1  0  0  0
  9 27  1  0  0  0
 27 28  1  0  0  0
 27 29  1  0  0  0
 29 30  1  0  0  0
  6 30  1  0  0  0
 30 31  2  0  0  0
  9 32  1  0  0  0
  6 32  1  0  0  0
 32 33  1  0  0  0
  2 33  1  0  0  0
 18 34  1  0  0  0
M  END
> <minimizedAffinity>
-5.64776

$$$$
