ligand_46


  8  8  0  0  0  0  0  0  0  0999 V2000
  -54.3719   -8.2947   85.1230 C   0  0  0  0  0  0  0  0  0  0  0  0
  -53.4848   -8.6829   83.9721 C   0  0  0  0  0  0  0  0  0  0  0  0
  -52.3014   -7.9630   83.7437 C   0  0  0  0  0  0  0  0  0  0  0  0
  -51.4554   -8.2964   82.6862 C   0  0  0  0  0  0  0  0  0  0  0  0
  -51.7815   -9.3538   81.8437 C   0  0  0  0  0  0  0  0  0  0  0  0
  -52.9540  -10.0781   82.0576 C   0  0  0  0  0  0  0  0  0  0  0  0
  -53.8157   -9.7542   83.1174 C   0  0  0  0  0  0  0  0  0  0  0  0
  -55.0721  -10.5568   83.3162 C   0  0  0  0  0  0  0  0  0  0  0  0
  1  2  1  0  0  0
  2  3  2  0  0  0
  3  4  1  0  0  0
  4  5  2  0  0  0
  5  6  1  0  0  0
  6  7  2  0  0  0
  2  7  1  0  0  0
  7  8  1  0  0  0
M  END
> <minimizedAffinity>
-5.09105

$$$$
ligand_46


  8  8  0  0  0  0  0  0  0  0999 V2000
  -55.0412  -10.5815   83.2921 C   0  0  0  0  0  0  0  0  0  0  0  0
  -53.7961   -9.7588   83.1044 C   0  0  0  0  0  0  0  0  0  0  0  0
  -52.9078  -10.0839   82.0670 C   0  0  0  0  0  0  0  0  0  0  0  0
  -51.7445   -9.3419   81.8641 C   0  0  0  0  0  0  0  0  0  0  0  0
  -51.4543   -8.2654   82.6955 C   0  0  0  0  0  0  0  0  0  0  0  0
  -52.3268   -7.9306   83.7307 C   0  0  0  0  0  0  0  0  0  0  0  0
  -53.5014   -8.6681   83.9477 C   0  0  0  0  0  0  0  0  0  0  0  0
  -54.4176   -8.2783   85.0751 C   0  0  0  0  0  0  0  0  0  0  0  0
  1  2  1  0  0  0
  2  3  2  0  0  0
  3  4  1  0  0  0
  4  5  2  0  0  0
  5  6  1  0  0  0
  6  7  2  0  0  0
  2  7  1  0  0  0
  7  8  1  0  0  0
M  END
> <minimizedAffinity>
-5.07616

$$$$
ligand_46


  8  8  0  0  0  0  0  0  0  0999 V2000
  -51.9326   -7.7285   83.7037 C   0  0  0  0  0  0  0  0  0  0  0  0
  -52.8041   -8.8653   83.2451 C   0  0  0  0  0  0  0  0  0  0  0  0
  -52.3679   -9.6832   82.1908 C   0  0  0  0  0  0  0  0  0  0  0  0
  -53.1505  -10.7464   81.7409 C   0  0  0  0  0  0  0  0  0  0  0  0
  -54.3790  -11.0055   82.3391 C   0  0  0  0  0  0  0  0  0  0  0  0
  -54.8261  -10.2014   83.3872 C   0  0  0  0  0  0  0  0  0  0  0  0
  -54.0499   -9.1274   83.8509 C   0  0  0  0  0  0  0  0  0  0  0  0
  -54.5654   -8.2811   84.9824 C   0  0  0  0  0  0  0  0  0  0  0  0
  1  2  1  0  0  0
  2  3  2  0  0  0
  3  4  1  0  0  0
  4  5  2  0  0  0
  5  6  1  0  0  0
  6  7  2  0  0  0
  2  7  1  0  0  0
  7  8  1  0  0  0
M  END
> <minimizedAffinity>
-4.97410

$$$$
ligand_46


  8  8  0  0  0  0  0  0  0  0999 V2000
  -54.5055   -8.2323   84.9843 C   0  0  0  0  0  0  0  0  0  0  0  0
  -53.9908   -9.0973   83.8667 C   0  0  0  0  0  0  0  0  0  0  0  0
  -54.7583  -10.1907   83.4349 C   0  0  0  0  0  0  0  0  0  0  0  0
  -54.3116  -11.0129   82.4008 C   0  0  0  0  0  0  0  0  0  0  0  0
  -53.0921  -10.7527   81.7850 C   0  0  0  0  0  0  0  0  0  0  0  0
  -52.3181   -9.6706   82.2032 C   0  0  0  0  0  0  0  0  0  0  0  0
  -52.7541   -8.8342   83.2429 C   0  0  0  0  0  0  0  0  0  0  0  0
  -51.8918   -7.6774   83.6679 C   0  0  0  0  0  0  0  0  0  0  0  0
  1  2  1  0  0  0
  2  3  2  0  0  0
  3  4  1  0  0  0
  4  5  2  0  0  0
  5  6  1  0  0  0
  6  7  2  0  0  0
  2  7  1  0  0  0
  7  8  1  0  0  0
M  END
> <minimizedAffinity>
-4.97079

$$$$
ligand_46


  8  8  0  0  0  0  0  0  0  0999 V2000
  -51.4171   -9.3339   81.1639 C   0  0  0  0  0  0  0  0  0  0  0  0
  -52.2390   -9.0690   82.3954 C   0  0  0  0  0  0  0  0  0  0  0  0
  -51.8121   -8.0925   83.3092 C   0  0  0  0  0  0  0  0  0  0  0  0
  -52.5502   -7.8209   84.4609 C   0  0  0  0  0  0  0  0  0  0  0  0
  -53.7245   -8.5218   84.7138 C   0  0  0  0  0  0  0  0  0  0  0  0
  -54.1612   -9.4952   83.8156 C   0  0  0  0  0  0  0  0  0  0  0  0
  -53.4289   -9.7802   82.6523 C   0  0  0  0  0  0  0  0  0  0  0  0
  -53.9302  -10.8377   81.7075 C   0  0  0  0  0  0  0  0  0  0  0  0
  1  2  1  0  0  0
  2  3  2  0  0  0
  3  4  1  0  0  0
  4  5  2  0  0  0
  5  6  1  0  0  0
  6  7  2  0  0  0
  2  7  1  0  0  0
  7  8  1  0  0  0
M  END
> <minimizedAffinity>
-4.81929

$$$$
