ligand_52


 31 33  0  0  0  0  0  0  0  0999 V2000
  -52.5841   -3.5345   73.6670 C   0  0  0  0  0  0  0  0  0  0  0  0
  -51.8798   -3.1146   72.5503 O   0  0  0  0  0  0  0  0  0  0  0  0
  -52.5522   -2.2752   71.6902 C   0  0  0  0  0  0  0  0  0  0  0  0
  -51.8945   -1.2484   71.0259 C   0  0  0  0  0  0  0  0  0  0  0  0
  -52.5971   -0.5358   70.0375 C   0  0  0  0  0  0  0  0  0  0  0  0
  -51.9666    0.5254   69.4270 O   0  0  0  0  0  0  0  0  0  0  0  0
  -53.9218   -0.8479   69.6724 C   0  0  0  0  0  0  0  0  0  0  0  0
  -54.5889   -1.8330   70.4058 C   0  0  0  0  0  0  0  0  0  0  0  0
  -55.8938   -2.1507   70.1300 O   0  0  0  0  0  0  0  0  0  0  0  0
  -53.9155   -2.4683   71.4605 C   0  0  0  0  0  0  0  0  0  0  0  0
  -54.6593   -3.1889   72.5058 C   0  0  0  0  0  0  0  0  0  0  0  0
  -55.8265   -3.5079   72.3395 O   0  0  0  0  0  0  0  0  0  0  0  0
  -53.9173   -3.4184   73.7754 C   0  0  0  0  0  0  0  0  0  0  0  0
  -51.0966    0.6075   69.8600 H   0  0  0  0  0  0  0  0  0  0  0  0
  -56.2017   -2.8442   70.7566 H   0  0  0  0  0  0  0  0  0  0  0  0
  -50.4444   -5.5922   76.7670 C   0  0  0  0  0  0  0  0  0  0  0  0
  -50.1159   -4.2659   76.4503 C   0  0  0  0  0  0  0  0  0  0  0  0
  -50.7692   -3.5766   75.4215 C   0  0  0  0  0  0  0  0  0  0  0  0
  -51.7668   -4.2121   74.6841 C   0  0  0  0  0  0  0  0  0  0  0  0
  -52.0768   -5.5512   74.9754 C   0  0  0  0  0  0  0  0  0  0  0  0
  -51.4257   -6.2348   76.0085 C   0  0  0  0  0  0  0  0  0  0  0  0
  -51.7829   -7.5327   76.2490 O   0  0  0  0  0  0  0  0  0  0  0  0
  -52.5126   -7.7831   75.6595 H   0  0  0  0  0  0  0  0  0  0  0  0
  -49.2339   -5.1707   78.7861 C   0  0  0  0  0  0  0  0  0  0  0  0
  -49.7243   -6.0897   77.8192 O   0  0  0  0  0  0  0  0  0  0  0  0
  -50.6134   -0.8131   71.2569 O   0  0  0  0  0  0  0  0  0  0  0  0
  -49.5672   -1.6318   70.7337 C   0  0  0  0  0  0  0  0  0  0  0  0
  -54.4486   -0.0688   68.6761 O   0  0  0  0  0  0  0  0  0  0  0  0
  -54.4816   -0.5989   67.3587 C   0  0  0  0  0  0  0  0  0  0  0  0
  -54.6011   -3.4944   74.9704 O   0  0  0  0  0  0  0  0  0  0  0  0
  -55.1949   -2.2072   75.2128 C   0  0  0  0  0  0  0  0  0  0  0  0
 24 25  1  0  0  0
 25 16  1  0  0  0
 16 17  2  0  0  0
 17 18  1  0  0  0
 18 19  2  0  0  0
 19  1  1  0  0  0
  1  2  1  0  0  0
  2  3  1  0  0  0
  3  4  2  0  0  0
  4 26  1  0  0  0
 26 27  1  0  0  0
  4  5  1  0  0  0
  5  6  1  0  0  0
  5  7  2  0  0  0
  7 28  1  0  0  0
 28 29  1  0  0  0
  7  8  1  0  0  0
  8  9  1  0  0  0
  8 10  2  0  0  0
  3 10  1  0  0  0
 10 11  1  0  0  0
 11 12  2  0  0  0
 11 13  1  0  0  0
  1 13  2  0  0  0
 13 30  1  0  0  0
 30 31  1  0  0  0
 19 20  1  0  0  0
 20 21  2  0  0  0
 16 21  1  0  0  0
 21 22  1  0  0  0
  6 14  1  0  0  0
  9 15  1  0  0  0
 22 23  1  0  0  0
M  END
> <minimizedAffinity>
-7.69678

$$$$
ligand_52


 31 33  0  0  0  0  0  0  0  0999 V2000
  -52.6397   -3.8613   73.7796 C   0  0  0  0  0  0  0  0  0  0  0  0
  -51.7189   -3.4771   72.8183 O   0  0  0  0  0  0  0  0  0  0  0  0
  -52.1196   -2.4764   71.9614 C   0  0  0  0  0  0  0  0  0  0  0  0
  -51.2225   -1.5222   71.4999 C   0  0  0  0  0  0  0  0  0  0  0  0
  -51.6521   -0.6314   70.4997 C   0  0  0  0  0  0  0  0  0  0  0  0
  -50.7845    0.3569   70.0908 O   0  0  0  0  0  0  0  0  0  0  0  0
  -52.9374   -0.6953   69.9258 C   0  0  0  0  0  0  0  0  0  0  0  0
  -53.8480   -1.6122   70.4582 C   0  0  0  0  0  0  0  0  0  0  0  0
  -55.1284   -1.6916   69.9746 O   0  0  0  0  0  0  0  0  0  0  0  0
  -53.4454   -2.4273   71.5274 C   0  0  0  0  0  0  0  0  0  0  0  0
  -54.4389   -3.0953   72.3830 C   0  0  0  0  0  0  0  0  0  0  0  0
  -55.6016   -3.2068   72.0261 O   0  0  0  0  0  0  0  0  0  0  0  0
  -53.9413   -3.5387   73.7138 C   0  0  0  0  0  0  0  0  0  0  0  0
  -49.9881    0.2632   70.6458 H   0  0  0  0  0  0  0  0  0  0  0  0
  -55.6281   -2.3718   70.4805 H   0  0  0  0  0  0  0  0  0  0  0  0
  -50.7992   -6.4073   76.7041 C   0  0  0  0  0  0  0  0  0  0  0  0
  -51.9906   -6.8044   76.0797 C   0  0  0  0  0  0  0  0  0  0  0  0
  -52.6365   -5.9833   75.1476 C   0  0  0  0  0  0  0  0  0  0  0  0
  -52.0971   -4.7385   74.8274 C   0  0  0  0  0  0  0  0  0  0  0  0
  -50.9216   -4.3218   75.4745 C   0  0  0  0  0  0  0  0  0  0  0  0
  -50.2758   -5.1481   76.4012 C   0  0  0  0  0  0  0  0  0  0  0  0
  -49.1286   -4.6883   76.9862 O   0  0  0  0  0  0  0  0  0  0  0  0
  -48.8971   -3.8232   76.6111 H   0  0  0  0  0  0  0  0  0  0  0  0
  -51.0845   -7.7154   78.6859 C   0  0  0  0  0  0  0  0  0  0  0  0
  -50.2980   -7.3508   77.5595 O   0  0  0  0  0  0  0  0  0  0  0  0
  -49.9409   -1.3197   71.9477 O   0  0  0  0  0  0  0  0  0  0  0  0
  -48.9508   -2.2189   71.4482 C   0  0  0  0  0  0  0  0  0  0  0  0
  -53.1841    0.2329   68.9487 O   0  0  0  0  0  0  0  0  0  0  0  0
  -53.8733    1.4205   69.3124 C   0  0  0  0  0  0  0  0  0  0  0  0
  -54.8025   -3.5940   74.7893 O   0  0  0  0  0  0  0  0  0  0  0  0
  -55.1389   -2.2417   75.1452 C   0  0  0  0  0  0  0  0  0  0  0  0
 24 25  1  0  0  0
 25 16  1  0  0  0
 16 17  2  0  0  0
 17 18  1  0  0  0
 18 19  2  0  0  0
 19  1  1  0  0  0
  1  2  1  0  0  0
  2  3  1  0  0  0
  3  4  2  0  0  0
  4 26  1  0  0  0
 26 27  1  0  0  0
  4  5  1  0  0  0
  5  6  1  0  0  0
  5  7  2  0  0  0
  7 28  1  0  0  0
 28 29  1  0  0  0
  7  8  1  0  0  0
  8  9  1  0  0  0
  8 10  2  0  0  0
  3 10  1  0  0  0
 10 11  1  0  0  0
 11 12  2  0  0  0
 11 13  1  0  0  0
  1 13  2  0  0  0
 13 30  1  0  0  0
 30 31  1  0  0  0
 19 20  1  0  0  0
 20 21  2  0  0  0
 16 21  1  0  0  0
 21 22  1  0  0  0
  6 14  1  0  0  0
  9 15  1  0  0  0
 22 23  1  0  0  0
M  END
> <minimizedAffinity>
-7.51514

$$$$
ligand_52


 31 33  0  0  0  0  0  0  0  0999 V2000
  -49.8580   -4.5491   74.5724 C   0  0  0  0  0  0  0  0  0  0  0  0
  -51.0649   -3.9878   74.1880 O   0  0  0  0  0  0  0  0  0  0  0  0
  -51.1692   -3.6234   72.8641 C   0  0  0  0  0  0  0  0  0  0  0  0
  -52.3666   -3.7558   72.1735 C   0  0  0  0  0  0  0  0  0  0  0  0
  -52.4539   -3.2117   70.8794 C   0  0  0  0  0  0  0  0  0  0  0  0
  -53.6185   -3.4022   70.1696 O   0  0  0  0  0  0  0  0  0  0  0  0
  -51.3914   -2.5092   70.2768 C   0  0  0  0  0  0  0  0  0  0  0  0
  -50.1722   -2.4544   70.9580 C   0  0  0  0  0  0  0  0  0  0  0  0
  -49.0867   -1.8255   70.4051 O   0  0  0  0  0  0  0  0  0  0  0  0
  -50.0608   -3.0899   72.2044 C   0  0  0  0  0  0  0  0  0  0  0  0
  -48.7423   -3.4216   72.7673 C   0  0  0  0  0  0  0  0  0  0  0  0
  -47.7250   -2.9058   72.3305 O   0  0  0  0  0  0  0  0  0  0  0  0
  -48.7444   -4.4668   73.8269 C   0  0  0  0  0  0  0  0  0  0  0  0
  -54.1909   -3.9547   70.7337 H   0  0  0  0  0  0  0  0  0  0  0  0
  -48.3168   -1.9058   71.0127 H   0  0  0  0  0  0  0  0  0  0  0  0
  -50.1695   -6.3604   78.4511 C   0  0  0  0  0  0  0  0  0  0  0  0
  -49.5290   -5.1212   78.3058 C   0  0  0  0  0  0  0  0  0  0  0  0
  -49.3785   -4.5186   77.0510 C   0  0  0  0  0  0  0  0  0  0  0  0
  -49.8669   -5.1559   75.9115 C   0  0  0  0  0  0  0  0  0  0  0  0
  -50.4799   -6.4129   76.0475 C   0  0  0  0  0  0  0  0  0  0  0  0
  -50.6337   -7.0090   77.3043 C   0  0  0  0  0  0  0  0  0  0  0  0
  -51.2505   -8.2278   77.3693 O   0  0  0  0  0  0  0  0  0  0  0  0
  -51.5479   -8.4888   76.4827 H   0  0  0  0  0  0  0  0  0  0  0  0
  -49.9045   -5.8489   80.7723 C   0  0  0  0  0  0  0  0  0  0  0  0
  -50.2508   -6.7764   79.7524 O   0  0  0  0  0  0  0  0  0  0  0  0
  -53.4937   -4.4081   72.6075 O   0  0  0  0  0  0  0  0  0  0  0  0
  -54.3561   -3.6668   73.4707 C   0  0  0  0  0  0  0  0  0  0  0  0
  -51.6524   -2.0259   69.0217 O   0  0  0  0  0  0  0  0  0  0  0  0
  -51.2367   -2.8008   67.9063 C   0  0  0  0  0  0  0  0  0  0  0  0
  -47.6459   -5.2837   73.9928 O   0  0  0  0  0  0  0  0  0  0  0  0
  -46.5690   -4.4673   74.4849 C   0  0  0  0  0  0  0  0  0  0  0  0
 24 25  1  0  0  0
 25 16  1  0  0  0
 16 17  2  0  0  0
 17 18  1  0  0  0
 18 19  2  0  0  0
 19  1  1  0  0  0
  1  2  1  0  0  0
  2  3  1  0  0  0
  3  4  2  0  0  0
  4 26  1  0  0  0
 26 27  1  0  0  0
  4  5  1  0  0  0
  5  6  1  0  0  0
  5  7  2  0  0  0
  7 28  1  0  0  0
 28 29  1  0  0  0
  7  8  1  0  0  0
  8  9  1  0  0  0
  8 10  2  0  0  0
  3 10  1  0  0  0
 10 11  1  0  0  0
 11 12  2  0  0  0
 11 13  1  0  0  0
  1 13  2  0  0  0
 13 30  1  0  0  0
 30 31  1  0  0  0
 19 20  1  0  0  0
 20 21  2  0  0  0
 16 21  1  0  0  0
 21 22  1  0  0  0
  6 14  1  0  0  0
  9 15  1  0  0  0
 22 23  1  0  0  0
M  END
> <minimizedAffinity>
-7.37898

$$$$
ligand_52


 31 33  0  0  0  0  0  0  0  0999 V2000
  -52.2267   -2.5695   70.5913 C   0  0  0  0  0  0  0  0  0  0  0  0
  -52.4317   -3.7054   71.3575 O   0  0  0  0  0  0  0  0  0  0  0  0
  -51.6283   -3.8403   72.4678 C   0  0  0  0  0  0  0  0  0  0  0  0
  -52.1122   -4.4011   73.6424 C   0  0  0  0  0  0  0  0  0  0  0  0
  -51.2007   -4.6647   74.6806 C   0  0  0  0  0  0  0  0  0  0  0  0
  -51.6914   -5.1579   75.8691 O   0  0  0  0  0  0  0  0  0  0  0  0
  -49.8187   -4.4178   74.5598 C   0  0  0  0  0  0  0  0  0  0  0  0
  -49.3653   -3.7831   73.4001 C   0  0  0  0  0  0  0  0  0  0  0  0
  -48.0391   -3.4738   73.2417 O   0  0  0  0  0  0  0  0  0  0  0  0
  -50.2959   -3.4279   72.4114 C   0  0  0  0  0  0  0  0  0  0  0  0
  -49.9655   -2.4208   71.3907 C   0  0  0  0  0  0  0  0  0  0  0  0
  -48.8079   -2.0883   71.1880 O   0  0  0  0  0  0  0  0  0  0  0  0
  -51.1311   -1.8015   70.7031 C   0  0  0  0  0  0  0  0  0  0  0  0
  -52.6603   -5.1974   75.7651 H   0  0  0  0  0  0  0  0  0  0  0  0
  -47.9102   -3.0144   72.3811 H   0  0  0  0  0  0  0  0  0  0  0  0
  -55.0257   -1.8464   67.4186 C   0  0  0  0  0  0  0  0  0  0  0  0
  -55.0746   -1.0714   68.5865 C   0  0  0  0  0  0  0  0  0  0  0  0
  -54.2002   -1.3033   69.6551 C   0  0  0  0  0  0  0  0  0  0  0  0
  -53.2582   -2.3273   69.5720 C   0  0  0  0  0  0  0  0  0  0  0  0
  -53.2269   -3.1280   68.4178 C   0  0  0  0  0  0  0  0  0  0  0  0
  -54.0986   -2.8891   67.3494 C   0  0  0  0  0  0  0  0  0  0  0  0
  -54.0082   -3.6967   66.2496 O   0  0  0  0  0  0  0  0  0  0  0  0
  -53.2753   -4.3229   66.3661 H   0  0  0  0  0  0  0  0  0  0  0  0
  -56.2083   -0.0656   66.3464 C   0  0  0  0  0  0  0  0  0  0  0  0
  -55.9336   -1.4544   66.4726 O   0  0  0  0  0  0  0  0  0  0  0  0
  -53.4210   -4.7010   73.9273 O   0  0  0  0  0  0  0  0  0  0  0  0
  -54.2718   -3.5915   74.2166 C   0  0  0  0  0  0  0  0  0  0  0  0
  -49.0706   -4.7532   75.6575 O   0  0  0  0  0  0  0  0  0  0  0  0
  -48.3086   -5.9509   75.6076 C   0  0  0  0  0  0  0  0  0  0  0  0
  -51.0465   -0.5091   70.2297 O   0  0  0  0  0  0  0  0  0  0  0  0
  -50.4193   -0.5613   68.9366 C   0  0  0  0  0  0  0  0  0  0  0  0
 24 25  1  0  0  0
 25 16  1  0  0  0
 16 17  2  0  0  0
 17 18  1  0  0  0
 18 19  2  0  0  0
 19  1  1  0  0  0
  1  2  1  0  0  0
  2  3  1  0  0  0
  3  4  2  0  0  0
  4 26  1  0  0  0
 26 27  1  0  0  0
  4  5  1  0  0  0
  5  6  1  0  0  0
  5  7  2  0  0  0
  7 28  1  0  0  0
 28 29  1  0  0  0
  7  8  1  0  0  0
  8  9  1  0  0  0
  8 10  2  0  0  0
  3 10  1  0  0  0
 10 11  1  0  0  0
 11 12  2  0  0  0
 11 13  1  0  0  0
  1 13  2  0  0  0
 13 30  1  0  0  0
 30 31  1  0  0  0
 19 20  1  0  0  0
 20 21  2  0  0  0
 16 21  1  0  0  0
 21 22  1  0  0  0
  6 14  1  0  0  0
  9 15  1  0  0  0
 22 23  1  0  0  0
M  END
> <minimizedAffinity>
-7.32116

$$$$
ligand_52


 31 33  0  0  0  0  0  0  0  0999 V2000
  -49.9887   -4.4812   74.8296 C   0  0  0  0  0  0  0  0  0  0  0  0
  -51.1599   -3.8881   74.3870 O   0  0  0  0  0  0  0  0  0  0  0  0
  -51.2169   -3.5874   73.0444 C   0  0  0  0  0  0  0  0  0  0  0  0
  -52.4025   -3.7026   72.3307 C   0  0  0  0  0  0  0  0  0  0  0  0
  -52.4350   -3.2218   71.0093 C   0  0  0  0  0  0  0  0  0  0  0  0
  -53.5901   -3.3973   70.2802 O   0  0  0  0  0  0  0  0  0  0  0  0
  -51.3284   -2.5977   70.4000 C   0  0  0  0  0  0  0  0  0  0  0  0
  -50.1242   -2.5614   71.1086 C   0  0  0  0  0  0  0  0  0  0  0  0
  -48.9990   -2.0093   70.5530 O   0  0  0  0  0  0  0  0  0  0  0  0
  -50.0705   -3.1369   72.3875 C   0  0  0  0  0  0  0  0  0  0  0  0
  -48.7817   -3.4966   72.9998 C   0  0  0  0  0  0  0  0  0  0  0  0
  -47.7325   -3.0484   72.5641 O   0  0  0  0  0  0  0  0  0  0  0  0
  -48.8554   -4.4853   74.1098 C   0  0  0  0  0  0  0  0  0  0  0  0
  -54.1996   -3.8950   70.8563 H   0  0  0  0  0  0  0  0  0  0  0  0
  -48.2479   -2.0919   71.1835 H   0  0  0  0  0  0  0  0  0  0  0  0
  -49.9038   -5.9846   78.8490 C   0  0  0  0  0  0  0  0  0  0  0  0
  -50.4289   -6.7749   77.8161 C   0  0  0  0  0  0  0  0  0  0  0  0
  -50.5044   -6.3025   76.5003 C   0  0  0  0  0  0  0  0  0  0  0  0
  -50.0560   -5.0181   76.1967 C   0  0  0  0  0  0  0  0  0  0  0  0
  -49.5597   -4.2102   77.2336 C   0  0  0  0  0  0  0  0  0  0  0  0
  -49.4803   -4.6882   78.5465 C   0  0  0  0  0  0  0  0  0  0  0  0
  -48.9758   -3.8559   79.5070 O   0  0  0  0  0  0  0  0  0  0  0  0
  -48.6882   -3.0240   79.0971 H   0  0  0  0  0  0  0  0  0  0  0  0
  -50.9875   -7.4494   80.3981 C   0  0  0  0  0  0  0  0  0  0  0  0
  -49.8815   -6.6236   80.0591 O   0  0  0  0  0  0  0  0  0  0  0  0
  -53.5674   -4.2823   72.7677 O   0  0  0  0  0  0  0  0  0  0  0  0
  -54.4406   -3.4451   73.5261 C   0  0  0  0  0  0  0  0  0  0  0  0
  -51.5380   -2.1680   69.1161 O   0  0  0  0  0  0  0  0  0  0  0  0
  -51.0525   -2.9748   68.0525 C   0  0  0  0  0  0  0  0  0  0  0  0
  -47.7987   -5.3397   74.3443 O   0  0  0  0  0  0  0  0  0  0  0  0
  -46.6194   -4.5343   74.5141 C   0  0  0  0  0  0  0  0  0  0  0  0
 24 25  1  0  0  0
 25 16  1  0  0  0
 16 17  2  0  0  0
 17 18  1  0  0  0
 18 19  2  0  0  0
 19  1  1  0  0  0
  1  2  1  0  0  0
  2  3  1  0  0  0
  3  4  2  0  0  0
  4 26  1  0  0  0
 26 27  1  0  0  0
  4  5  1  0  0  0
  5  6  1  0  0  0
  5  7  2  0  0  0
  7 28  1  0  0  0
 28 29  1  0  0  0
  7  8  1  0  0  0
  8  9  1  0  0  0
  8 10  2  0  0  0
  3 10  1  0  0  0
 10 11  1  0  0  0
 11 12  2  0  0  0
 11 13  1  0  0  0
  1 13  2  0  0  0
 13 30  1  0  0  0
 30 31  1  0  0  0
 19 20  1  0  0  0
 20 21  2  0  0  0
 16 21  1  0  0  0
 21 22  1  0  0  0
  6 14  1  0  0  0
  9 15  1  0  0  0
 22 23  1  0  0  0
M  END
> <minimizedAffinity>
-7.07716

$$$$
