ligand_8


 16 17  0  0  0  0  0  0  0  0999 V2000
  -49.9142   -2.2601   70.4706 C   0  0  0  0  0  0  0  0  0  0  0  0
  -50.4685   -3.2201   71.5245 C   0  0  0  0  0  0  0  0  0  0  0  0
  -51.9553   -2.9497   71.7547 C   0  0  0  0  0  0  0  0  0  0  0  0
  -52.5316   -3.9124   72.7655 C   0  0  0  0  0  0  0  0  0  0  0  0
  -53.7095   -4.2674   72.7287 O   0  0  0  0  0  0  0  0  0  0  0  0
  -51.6604   -4.3835   73.8748 C   0  0  0  0  0  0  0  0  0  0  0  0
  -52.1877   -5.1906   74.8935 C   0  0  0  0  0  0  0  0  0  0  0  0
  -53.4910   -5.6095   74.9198 O   0  0  0  0  0  0  0  0  0  0  0  0
  -51.3881   -5.6029   75.9558 C   0  0  0  0  0  0  0  0  0  0  0  0
  -50.0515   -5.2143   76.0107 C   0  0  0  0  0  0  0  0  0  0  0  0
  -49.5132   -4.4188   74.9984 C   0  0  0  0  0  0  0  0  0  0  0  0
  -50.3081   -4.0012   73.9164 C   0  0  0  0  0  0  0  0  0  0  0  0
  -49.7076   -3.1126   72.8546 C   0  0  0  0  0  0  0  0  0  0  0  0
  -49.7152   -1.7623   73.3096 O   0  0  0  0  0  0  0  0  0  0  0  0
  -53.9417   -5.2500   74.1218 H   0  0  0  0  0  0  0  0  0  0  0  0
  -49.9604   -1.7441   74.2506 H   0  0  0  0  0  0  0  0  0  0  0  0
  1  2  1  0  0  0
  2  3  1  0  0  0
  3  4  1  0  0  0
  4  5  2  0  0  0
  4  6  1  0  0  0
  6  7  2  0  0  0
  7  8  1  0  0  0
  7  9  1  0  0  0
  9 10  2  0  0  0
 10 11  1  0  0  0
 11 12  2  0  0  0
  6 12  1  0  0  0
 12 13  1  0  0  0
  2 13  1  0  0  0
 13 14  1  0  0  0
  8 15  1  0  0  0
 14 16  1  0  0  0
M  END
> <minimizedAffinity>
-6.66928

$$$$
ligand_8


 16 17  0  0  0  0  0  0  0  0999 V2000
  -47.4535   -2.9044   79.7581 C   0  0  0  0  0  0  0  0  0  0  0  0
  -48.1656   -4.2376   79.5233 C   0  0  0  0  0  0  0  0  0  0  0  0
  -49.0160   -4.1656   78.2552 C   0  0  0  0  0  0  0  0  0  0  0  0
  -49.6989   -5.4851   77.9843 C   0  0  0  0  0  0  0  0  0  0  0  0
  -49.9635   -5.8589   76.8420 O   0  0  0  0  0  0  0  0  0  0  0  0
  -50.1233   -6.3162   79.1422 C   0  0  0  0  0  0  0  0  0  0  0  0
  -50.8561   -7.4940   78.9357 C   0  0  0  0  0  0  0  0  0  0  0  0
  -51.1950   -7.9586   77.6931 O   0  0  0  0  0  0  0  0  0  0  0  0
  -51.2907   -8.2564   80.0164 C   0  0  0  0  0  0  0  0  0  0  0  0
  -50.9958   -7.8505   81.3160 C   0  0  0  0  0  0  0  0  0  0  0  0
  -50.2597   -6.6852   81.5337 C   0  0  0  0  0  0  0  0  0  0  0  0
  -49.8089   -5.9098   80.4509 C   0  0  0  0  0  0  0  0  0  0  0  0
  -49.0449   -4.6360   80.7182 C   0  0  0  0  0  0  0  0  0  0  0  0
  -49.9638   -3.5880   81.0146 O   0  0  0  0  0  0  0  0  0  0  0  0
  -50.8327   -7.3323   77.0255 H   0  0  0  0  0  0  0  0  0  0  0  0
  -50.8529   -3.9656   81.1273 H   0  0  0  0  0  0  0  0  0  0  0  0
  1  2  1  0  0  0
  2  3  1  0  0  0
  3  4  1  0  0  0
  4  5  2  0  0  0
  4  6  1  0  0  0
  6  7  2  0  0  0
  7  8  1  0  0  0
  7  9  1  0  0  0
  9 10  2  0  0  0
 10 11  1  0  0  0
 11 12  2  0  0  0
  6 12  1  0  0  0
 12 13  1  0  0  0
  2 13  1  0  0  0
 13 14  1  0  0  0
  8 15  1  0  0  0
 14 16  1  0  0  0
M  END
> <minimizedAffinity>
-6.50700

$$$$
ligand_8


 16 17  0  0  0  0  0  0  0  0999 V2000
  -49.3005   -5.4812   77.6785 C   0  0  0  0  0  0  0  0  0  0  0  0
  -50.2854   -4.9260   76.6482 C   0  0  0  0  0  0  0  0  0  0  0  0
  -51.1931   -6.0419   76.1312 C   0  0  0  0  0  0  0  0  0  0  0  0
  -52.1989   -5.5073   75.1395 C   0  0  0  0  0  0  0  0  0  0  0  0
  -53.3119   -6.0146   75.0033 O   0  0  0  0  0  0  0  0  0  0  0  0
  -51.7965   -4.3798   74.2573 C   0  0  0  0  0  0  0  0  0  0  0  0
  -52.6615   -3.9268   73.2505 C   0  0  0  0  0  0  0  0  0  0  0  0
  -53.9062   -4.4557   73.0370 O   0  0  0  0  0  0  0  0  0  0  0  0
  -52.2759   -2.8981   72.3955 C   0  0  0  0  0  0  0  0  0  0  0  0
  -51.0215   -2.3094   72.5387 C   0  0  0  0  0  0  0  0  0  0  0  0
  -50.1557   -2.7456   73.5424 C   0  0  0  0  0  0  0  0  0  0  0  0
  -50.5355   -3.7789   74.4169 C   0  0  0  0  0  0  0  0  0  0  0  0
  -49.5644   -4.2532   75.4705 C   0  0  0  0  0  0  0  0  0  0  0  0
  -48.6396   -5.1647   74.8837 O   0  0  0  0  0  0  0  0  0  0  0  0
  -54.0514   -5.1681   73.7007 H   0  0  0  0  0  0  0  0  0  0  0  0
  -48.7493   -5.1529   73.9174 H   0  0  0  0  0  0  0  0  0  0  0  0
  1  2  1  0  0  0
  2  3  1  0  0  0
  3  4  1  0  0  0
  4  5  2  0  0  0
  4  6  1  0  0  0
  6  7  2  0  0  0
  7  8  1  0  0  0
  7  9  1  0  0  0
  9 10  2  0  0  0
 10 11  1  0  0  0
 11 12  2  0  0  0
  6 12  1  0  0  0
 12 13  1  0  0  0
  2 13  1  0  0  0
 13 14  1  0  0  0
  8 15  1  0  0  0
 14 16  1  0  0  0
M  END
> <minimizedAffinity>
-6.33419

$$$$
ligand_8


 16 17  0  0  0  0  0  0  0  0999 V2000
  -48.0218   -2.6067   80.1957 C   0  0  0  0  0  0  0  0  0  0  0  0
  -48.9844   -3.7478   79.8625 C   0  0  0  0  0  0  0  0  0  0  0  0
  -48.8698   -4.8570   80.9080 C   0  0  0  0  0  0  0  0  0  0  0  0
  -49.8396   -5.9779   80.6182 C   0  0  0  0  0  0  0  0  0  0  0  0
  -50.3246   -6.6674   81.5149 O   0  0  0  0  0  0  0  0  0  0  0  0
  -50.1558   -6.2948   79.2001 C   0  0  0  0  0  0  0  0  0  0  0  0
  -50.9653   -7.3962   78.8857 C   0  0  0  0  0  0  0  0  0  0  0  0
  -51.5246   -8.2110   79.8334 O   0  0  0  0  0  0  0  0  0  0  0  0
  -51.2334   -7.7223   77.5592 C   0  0  0  0  0  0  0  0  0  0  0  0
  -50.6965   -6.9497   76.5319 C   0  0  0  0  0  0  0  0  0  0  0  0
  -49.8970   -5.8462   76.8325 C   0  0  0  0  0  0  0  0  0  0  0  0
  -49.6241   -5.5019   78.1681 C   0  0  0  0  0  0  0  0  0  0  0  0
  -48.7276   -4.3238   78.4618 C   0  0  0  0  0  0  0  0  0  0  0  0
  -47.3658   -4.7265   78.3454 O   0  0  0  0  0  0  0  0  0  0  0  0
  -51.2571   -7.8746   80.7191 H   0  0  0  0  0  0  0  0  0  0  0  0
  -47.3286   -5.6173   77.9568 H   0  0  0  0  0  0  0  0  0  0  0  0
  1  2  1  0  0  0
  2  3  1  0  0  0
  3  4  1  0  0  0
  4  5  2  0  0  0
  4  6  1  0  0  0
  6  7  2  0  0  0
  7  8  1  0  0  0
  7  9  1  0  0  0
  9 10  2  0  0  0
 10 11  1  0  0  0
 11 12  2  0  0  0
  6 12  1  0  0  0
 12 13  1  0  0  0
  2 13  1  0  0  0
 13 14  1  0  0  0
  8 15  1  0  0  0
 14 16  1  0  0  0
M  END
> <minimizedAffinity>
-6.29029

$$$$
ligand_8


 16 17  0  0  0  0  0  0  0  0999 V2000
  -50.3445   -3.9386   76.3317 C   0  0  0  0  0  0  0  0  0  0  0  0
  -50.8296   -3.5167   74.9438 C   0  0  0  0  0  0  0  0  0  0  0  0
  -51.7681   -4.5770   74.3680 C   0  0  0  0  0  0  0  0  0  0  0  0
  -52.2886   -4.1622   73.0123 C   0  0  0  0  0  0  0  0  0  0  0  0
  -53.3949   -4.5143   72.6040 O   0  0  0  0  0  0  0  0  0  0  0  0
  -51.4017   -3.3642   72.1246 C   0  0  0  0  0  0  0  0  0  0  0  0
  -51.8052   -3.0523   70.8181 C   0  0  0  0  0  0  0  0  0  0  0  0
  -53.0157   -3.4247   70.2977 O   0  0  0  0  0  0  0  0  0  0  0  0
  -50.9640   -2.3395   69.9682 C   0  0  0  0  0  0  0  0  0  0  0  0
  -49.7103   -1.9290   70.4157 C   0  0  0  0  0  0  0  0  0  0  0  0
  -49.3014   -2.2257   71.7166 C   0  0  0  0  0  0  0  0  0  0  0  0
  -50.1440   -2.9389   72.5873 C   0  0  0  0  0  0  0  0  0  0  0  0
  -49.6607   -3.2753   73.9769 C   0  0  0  0  0  0  0  0  0  0  0  0
  -48.8313   -4.4326   73.9206 O   0  0  0  0  0  0  0  0  0  0  0  0
  -53.5063   -3.9187   70.9937 H   0  0  0  0  0  0  0  0  0  0  0  0
  -48.6439   -4.6461   72.9905 H   0  0  0  0  0  0  0  0  0  0  0  0
  1  2  1  0  0  0
  2  3  1  0  0  0
  3  4  1  0  0  0
  4  5  2  0  0  0
  4  6  1  0  0  0
  6  7  2  0  0  0
  7  8  1  0  0  0
  7  9  1  0  0  0
  9 10  2  0  0  0
 10 11  1  0  0  0
 11 12  2  0  0  0
  6 12  1  0  0  0
 12 13  1  0  0  0
  2 13  1  0  0  0
 13 14  1  0  0  0
  8 15  1  0  0  0
 14 16  1  0  0  0
M  END
> <minimizedAffinity>
-6.21081

$$$$
