ligand_0


 16 15  0  0  0  0  0  0  0  0999 V2000
  -47.3625   -0.2126   81.1970 C   0  0  0  0  0  0  0  0  0  0  0  0
  -48.8546   -3.3742   79.6876 C   0  0  0  0  0  0  0  0  0  0  0  0
  -47.7730   -2.4132   80.0944 C   0  0  0  0  0  0  0  0  0  0  0  0
  -46.5898   -2.5959   79.8272 O   0  0  0  0  0  0  0  0  0  0  0  0
  -48.2304   -1.3082   80.7635 N   0  0  0  0  0  0  0  0  0  0  0  0
  -49.1997   -1.2704   81.0744 H   0  0  0  0  0  0  0  0  0  0  0  0
  -47.1390   -0.3827   82.7084 C   0  0  0  0  0  0  0  0  0  0  0  0
  -46.5003    0.4115   83.3895 O   0  0  0  0  0  0  0  0  0  0  0  0
  -47.7038   -1.4895   83.2403 O   0  0  0  0  0  0  0  0  0  0  0  0
  -48.1853   -2.0585   82.6100 H   0  0  0  0  0  0  0  0  0  0  0  0
  -47.9895    1.1582   80.9085 C   0  0  0  0  0  0  0  0  0  0  0  0
  -46.9641    2.2917   80.8438 C   0  0  0  0  0  0  0  0  0  0  0  0
  -47.2434    3.3764   81.8510 C   0  0  0  0  0  0  0  0  0  0  0  0
  -46.8446    4.5272   81.7718 O   0  0  0  0  0  0  0  0  0  0  0  0
  -48.0097    2.9362   82.8751 O   0  0  0  0  0  0  0  0  0  0  0  0
  -48.2584    1.9935   82.7998 H   0  0  0  0  0  0  0  0  0  0  0  0
  2  3  1  0  0  0
  3  4  2  0  0  0
  3  5  1  0  0  0
  5  1  1  0  0  0
  1 11  1  0  0  0
 11 12  1  0  0  0
 12 13  1  0  0  0
 13 14  2  0  0  0
 13 15  1  0  0  0
  1  7  1  0  0  0
  7  8  2  0  0  0
  7  9  1  0  0  0
  5  6  1  0  0  0
 15 16  1  0  0  0
  9 10  1  0  0  0
M  END
> <minimizedAffinity>
-6.53871

$$$$
ligand_0


 16 15  0  0  0  0  0  0  0  0999 V2000
  -47.7238    1.6830   81.6195 C   0  0  0  0  0  0  0  0  0  0  0  0
  -46.7135    5.3348   81.9994 C   0  0  0  0  0  0  0  0  0  0  0  0
  -47.5601    4.1072   82.1879 C   0  0  0  0  0  0  0  0  0  0  0  0
  -48.6330    4.1274   82.7822 O   0  0  0  0  0  0  0  0  0  0  0  0
  -47.0392    2.9764   81.6152 N   0  0  0  0  0  0  0  0  0  0  0  0
  -46.0880    2.9860   81.2511 H   0  0  0  0  0  0  0  0  0  0  0  0
  -47.6091    1.1146   83.0433 C   0  0  0  0  0  0  0  0  0  0  0  0
  -46.5835    0.6121   83.4885 O   0  0  0  0  0  0  0  0  0  0  0  0
  -48.7387    1.2077   83.7796 O   0  0  0  0  0  0  0  0  0  0  0  0
  -49.5004    1.6191   83.3285 H   0  0  0  0  0  0  0  0  0  0  0  0
  -47.1021    0.7069   80.6113 C   0  0  0  0  0  0  0  0  0  0  0  0
  -47.7593   -0.6746   80.6218 C   0  0  0  0  0  0  0  0  0  0  0  0
  -46.7939   -1.7664   81.0026 C   0  0  0  0  0  0  0  0  0  0  0  0
  -47.0450   -2.9607   80.9910 O   0  0  0  0  0  0  0  0  0  0  0  0
  -45.5847   -1.2761   81.3593 O   0  0  0  0  0  0  0  0  0  0  0  0
  -45.5296   -0.3009   81.3137 H   0  0  0  0  0  0  0  0  0  0  0  0
  2  3  1  0  0  0
  3  4  2  0  0  0
  3  5  1  0  0  0
  5  1  1  0  0  0
  1 11  1  0  0  0
 11 12  1  0  0  0
 12 13  1  0  0  0
 13 14  2  0  0  0
 13 15  1  0  0  0
  1  7  1  0  0  0
  7  8  2  0  0  0
  7  9  1  0  0  0
  5  6  1  0  0  0
 15 16  1  0  0  0
  9 10  1  0  0  0
M  END
> <minimizedAffinity>
-5.70894

$$$$
ligand_0


 16 15  0  0  0  0  0  0  0  0999 V2000
  -48.6682   -3.8782   80.2711 C   0  0  0  0  0  0  0  0  0  0  0  0
  -47.7439   -0.2331   80.8704 C   0  0  0  0  0  0  0  0  0  0  0  0
  -47.5107   -1.6893   80.5803 C   0  0  0  0  0  0  0  0  0  0  0  0
  -46.3882   -2.1700   80.4643 O   0  0  0  0  0  0  0  0  0  0  0  0
  -48.6594   -2.4305   80.4846 N   0  0  0  0  0  0  0  0  0  0  0  0
  -49.5632   -1.9615   80.4568 H   0  0  0  0  0  0  0  0  0  0  0  0
  -48.5629   -4.1132   78.7555 C   0  0  0  0  0  0  0  0  0  0  0  0
  -49.5116   -3.9993   77.9876 O   0  0  0  0  0  0  0  0  0  0  0  0
  -47.3306   -4.4624   78.3240 O   0  0  0  0  0  0  0  0  0  0  0  0
  -46.6473   -4.5310   79.0177 H   0  0  0  0  0  0  0  0  0  0  0  0
  -49.9482   -4.5260   80.8166 C   0  0  0  0  0  0  0  0  0  0  0  0
  -49.8852   -6.0541   80.8535 C   0  0  0  0  0  0  0  0  0  0  0  0
  -50.9189   -6.6490   81.7736 C   0  0  0  0  0  0  0  0  0  0  0  0
  -52.0044   -6.1510   82.0250 O   0  0  0  0  0  0  0  0  0  0  0  0
  -50.5149   -7.8277   82.3001 O   0  0  0  0  0  0  0  0  0  0  0  0
  -49.6251   -8.1039   82.0027 H   0  0  0  0  0  0  0  0  0  0  0  0
  2  3  1  0  0  0
  3  4  2  0  0  0
  3  5  1  0  0  0
  5  1  1  0  0  0
  1 11  1  0  0  0
 11 12  1  0  0  0
 12 13  1  0  0  0
 13 14  2  0  0  0
 13 15  1  0  0  0
  1  7  1  0  0  0
  7  8  2  0  0  0
  7  9  1  0  0  0
  5  6  1  0  0  0
 15 16  1  0  0  0
  9 10  1  0  0  0
M  END
> <minimizedAffinity>
-5.45495

$$$$
ligand_0


 16 15  0  0  0  0  0  0  0  0999 V2000
  -48.7076   -4.2391   79.2029 C   0  0  0  0  0  0  0  0  0  0  0  0
  -50.2657   -4.4592   75.7353 C   0  0  0  0  0  0  0  0  0  0  0  0
  -49.5370   -4.9436   76.9574 C   0  0  0  0  0  0  0  0  0  0  0  0
  -49.0609   -6.0710   77.0412 O   0  0  0  0  0  0  0  0  0  0  0  0
  -49.4308   -4.0070   77.9521 N   0  0  0  0  0  0  0  0  0  0  0  0
  -49.9556   -3.1365   77.8853 H   0  0  0  0  0  0  0  0  0  0  0  0
  -49.7174   -4.0652   80.3489 C   0  0  0  0  0  0  0  0  0  0  0  0
  -50.0040   -4.9593   81.1370 O   0  0  0  0  0  0  0  0  0  0  0  0
  -50.2773   -2.8374   80.4249 O   0  0  0  0  0  0  0  0  0  0  0  0
  -49.9845   -2.2004   79.7456 H   0  0  0  0  0  0  0  0  0  0  0  0
  -47.5407   -3.2573   79.3760 C   0  0  0  0  0  0  0  0  0  0  0  0
  -47.1800   -2.9974   80.8399 C   0  0  0  0  0  0  0  0  0  0  0  0
  -47.0821   -1.5276   81.1546 C   0  0  0  0  0  0  0  0  0  0  0  0
  -46.1160   -0.9814   81.6622 O   0  0  0  0  0  0  0  0  0  0  0  0
  -48.2004   -0.8546   80.7993 O   0  0  0  0  0  0  0  0  0  0  0  0
  -48.8878   -1.4231   80.3985 H   0  0  0  0  0  0  0  0  0  0  0  0
  2  3  1  0  0  0
  3  4  2  0  0  0
  3  5  1  0  0  0
  5  1  1  0  0  0
  1 11  1  0  0  0
 11 12  1  0  0  0
 12 13  1  0  0  0
 13 14  2  0  0  0
 13 15  1  0  0  0
  1  7  1  0  0  0
  7  8  2  0  0  0
  7  9  1  0  0  0
  5  6  1  0  0  0
 15 16  1  0  0  0
  9 10  1  0  0  0
M  END
> <minimizedAffinity>
-5.38510

$$$$
ligand_0


 16 15  0  0  0  0  0  0  0  0999 V2000
  -48.0409   -2.9259   80.7492 C   0  0  0  0  0  0  0  0  0  0  0  0
  -47.7237    0.8688   80.7495 C   0  0  0  0  0  0  0  0  0  0  0  0
  -47.3501   -0.5503   81.0745 C   0  0  0  0  0  0  0  0  0  0  0  0
  -46.4009   -0.8364   81.7970 O   0  0  0  0  0  0  0  0  0  0  0  0
  -48.1781   -1.4880   80.5149 N   0  0  0  0  0  0  0  0  0  0  0  0
  -48.8667   -1.2043   79.8200 H   0  0  0  0  0  0  0  0  0  0  0  0
  -46.9670   -3.4426   79.7780 C   0  0  0  0  0  0  0  0  0  0  0  0
  -47.2268   -3.9494   78.6925 O   0  0  0  0  0  0  0  0  0  0  0  0
  -45.6962   -3.2981   80.2147 O   0  0  0  0  0  0  0  0  0  0  0  0
  -45.5995   -2.8880   81.0953 H   0  0  0  0  0  0  0  0  0  0  0  0
  -49.3633   -3.6691   80.5158 C   0  0  0  0  0  0  0  0  0  0  0  0
  -49.3041   -5.1473   80.9057 C   0  0  0  0  0  0  0  0  0  0  0  0
  -49.9664   -6.0366   79.8861 C   0  0  0  0  0  0  0  0  0  0  0  0
  -50.7143   -6.9656   80.1455 O   0  0  0  0  0  0  0  0  0  0  0  0
  -49.6470   -5.6858   78.6194 O   0  0  0  0  0  0  0  0  0  0  0  0
  -49.0433   -4.9183   78.5670 H   0  0  0  0  0  0  0  0  0  0  0  0
  2  3  1  0  0  0
  3  4  2  0  0  0
  3  5  1  0  0  0
  5  1  1  0  0  0
  1 11  1  0  0  0
 11 12  1  0  0  0
 12 13  1  0  0  0
 13 14  2  0  0  0
 13 15  1  0  0  0
  1  7  1  0  0  0
  7  8  2  0  0  0
  7  9  1  0  0  0
  5  6  1  0  0  0
 15 16  1  0  0  0
  9 10  1  0  0  0
M  END
> <minimizedAffinity>
-5.36868

$$$$
