ligand_37


 25 27  0  0  0  0  0  0  0  0999 V2000
  -49.6715   -4.7694   75.4376 C   0  0  0  0  0  0  0  0  0  0  0  0
  -48.5181   -4.8745   74.7634 C   0  0  0  0  0  0  0  0  0  0  0  0
  -48.1615   -4.1537   73.6518 O   0  0  0  0  0  0  0  0  0  0  0  0
  -49.1568   -3.4462   73.0202 C   0  0  0  0  0  0  0  0  0  0  0  0
  -48.8522   -2.9632   71.7418 C   0  0  0  0  0  0  0  0  0  0  0  0
  -49.8278   -2.2853   71.0169 C   0  0  0  0  0  0  0  0  0  0  0  0
  -49.5600   -1.8185   69.7623 O   0  0  0  0  0  0  0  0  0  0  0  0
  -51.0947   -2.0935   71.5688 C   0  0  0  0  0  0  0  0  0  0  0  0
  -51.3795   -2.5354   72.8668 C   0  0  0  0  0  0  0  0  0  0  0  0
  -52.6339   -2.3054   73.3619 O   0  0  0  0  0  0  0  0  0  0  0  0
  -50.4134   -3.2266   73.5980 C   0  0  0  0  0  0  0  0  0  0  0  0
  -50.6643   -3.7736   74.9525 C   0  0  0  0  0  0  0  0  0  0  0  0
  -51.6209   -3.4509   75.6429 O   0  0  0  0  0  0  0  0  0  0  0  0
  -48.6040   -1.8730   69.5972 H   0  0  0  0  0  0  0  0  0  0  0  0
  -53.0695   -1.6884   72.7440 H   0  0  0  0  0  0  0  0  0  0  0  0
  -50.7227   -7.2900   78.7129 C   0  0  0  0  0  0  0  0  0  0  0  0
  -51.0625   -7.6713   77.4152 C   0  0  0  0  0  0  0  0  0  0  0  0
  -50.6948   -6.8732   76.3286 C   0  0  0  0  0  0  0  0  0  0  0  0
  -49.9617   -5.6988   76.5359 C   0  0  0  0  0  0  0  0  0  0  0  0
  -49.5594   -5.3649   77.8365 C   0  0  0  0  0  0  0  0  0  0  0  0
  -49.9377   -6.1576   78.9221 C   0  0  0  0  0  0  0  0  0  0  0  0
  -50.8178   -7.6199   81.0207 C   0  0  0  0  0  0  0  0  0  0  0  0
  -51.1653   -8.1003   79.7229 O   0  0  0  0  0  0  0  0  0  0  0  0
  -52.0954   -1.4417   70.8906 O   0  0  0  0  0  0  0  0  0  0  0  0
  -52.8109   -2.3627   70.0626 C   0  0  0  0  0  0  0  0  0  0  0  0
 22 23  1  0  0  0
 23 16  1  0  0  0
 16 17  2  0  0  0
 17 18  1  0  0  0
 18 19  2  0  0  0
 19  1  1  0  0  0
  1  2  2  0  0  0
  2  3  1  0  0  0
  3  4  1  0  0  0
  4  5  2  0  0  0
  5  6  1  0  0  0
  6  7  1  0  0  0
  6  8  2  0  0  0
  8 24  1  0  0  0
 24 25  1  0  0  0
  8  9  1  0  0  0
  9 10  1  0  0  0
  9 11  2  0  0  0
  4 11  1  0  0  0
 11 12  1  0  0  0
  1 12  1  0  0  0
 12 13  2  0  0  0
 19 20  1  0  0  0
 20 21  2  0  0  0
 16 21  1  0  0  0
  7 14  1  0  0  0
 10 15  1  0  0  0
M  END
> <minimizedAffinity>
-7.44694

$$$$
ligand_37


 25 27  0  0  0  0  0  0  0  0999 V2000
  -52.3701   -3.0435   73.0398 C   0  0  0  0  0  0  0  0  0  0  0  0
  -53.4034   -2.2055   73.2007 C   0  0  0  0  0  0  0  0  0  0  0  0
  -53.9119   -1.3555   72.2513 O   0  0  0  0  0  0  0  0  0  0  0  0
  -53.1531   -1.1536   71.1228 C   0  0  0  0  0  0  0  0  0  0  0  0
  -53.5315   -0.0773   70.3112 C   0  0  0  0  0  0  0  0  0  0  0  0
  -52.7782    0.2243   69.1806 C   0  0  0  0  0  0  0  0  0  0  0  0
  -53.1177    1.2781   68.3821 O   0  0  0  0  0  0  0  0  0  0  0  0
  -51.6577   -0.5460   68.8675 C   0  0  0  0  0  0  0  0  0  0  0  0
  -51.3116   -1.6511   69.6548 C   0  0  0  0  0  0  0  0  0  0  0  0
  -50.2122   -2.3792   69.2903 O   0  0  0  0  0  0  0  0  0  0  0  0
  -52.0522   -1.9556   70.7969 C   0  0  0  0  0  0  0  0  0  0  0  0
  -51.7087   -3.0733   71.7077 C   0  0  0  0  0  0  0  0  0  0  0  0
  -50.9299   -3.9687   71.4116 O   0  0  0  0  0  0  0  0  0  0  0  0
  -54.0024    1.5953   68.6289 H   0  0  0  0  0  0  0  0  0  0  0  0
  -49.9585   -2.0749   68.3986 H   0  0  0  0  0  0  0  0  0  0  0  0
  -50.7811   -5.4377   76.1908 C   0  0  0  0  0  0  0  0  0  0  0  0
  -50.1706   -4.2245   75.8743 C   0  0  0  0  0  0  0  0  0  0  0  0
  -50.6997   -3.4125   74.8675 C   0  0  0  0  0  0  0  0  0  0  0  0
  -51.8602   -3.8018   74.1883 C   0  0  0  0  0  0  0  0  0  0  0  0
  -52.5089   -4.9854   74.5668 C   0  0  0  0  0  0  0  0  0  0  0  0
  -51.9723   -5.8011   75.5650 C   0  0  0  0  0  0  0  0  0  0  0  0
  -50.8465   -7.4256   77.4107 C   0  0  0  0  0  0  0  0  0  0  0  0
  -50.1703   -6.1960   77.1524 O   0  0  0  0  0  0  0  0  0  0  0  0
  -50.8746   -0.2831   67.7703 O   0  0  0  0  0  0  0  0  0  0  0  0
  -49.7805    0.5622   68.1366 C   0  0  0  0  0  0  0  0  0  0  0  0
 22 23  1  0  0  0
 23 16  1  0  0  0
 16 17  2  0  0  0
 17 18  1  0  0  0
 18 19  2  0  0  0
 19  1  1  0  0  0
  1  2  2  0  0  0
  2  3  1  0  0  0
  3  4  1  0  0  0
  4  5  2  0  0  0
  5  6  1  0  0  0
  6  7  1  0  0  0
  6  8  2  0  0  0
  8 24  1  0  0  0
 24 25  1  0  0  0
  8  9  1  0  0  0
  9 10  1  0  0  0
  9 11  2  0  0  0
  4 11  1  0  0  0
 11 12  1  0  0  0
  1 12  1  0  0  0
 12 13  2  0  0  0
 19 20  1  0  0  0
 20 21  2  0  0  0
 16 21  1  0  0  0
  7 14  1  0  0  0
 10 15  1  0  0  0
M  END
> <minimizedAffinity>
-7.36220

$$$$
ligand_37


 25 27  0  0  0  0  0  0  0  0999 V2000
  -50.8080   -3.2945   73.2123 C   0  0  0  0  0  0  0  0  0  0  0  0
  -49.9617   -2.2572   73.1505 C   0  0  0  0  0  0  0  0  0  0  0  0
  -49.9247   -1.3000   72.1682 O   0  0  0  0  0  0  0  0  0  0  0  0
  -50.6380   -1.5544   71.0208 C   0  0  0  0  0  0  0  0  0  0  0  0
  -50.3599   -0.7258   69.9269 C   0  0  0  0  0  0  0  0  0  0  0  0
  -51.0017   -0.9567   68.7139 C   0  0  0  0  0  0  0  0  0  0  0  0
  -50.7359   -0.1725   67.6286 O   0  0  0  0  0  0  0  0  0  0  0  0
  -51.9129   -2.0072   68.5998 C   0  0  0  0  0  0  0  0  0  0  0  0
  -52.2242   -2.8025   69.7095 C   0  0  0  0  0  0  0  0  0  0  0  0
  -53.1371   -3.8077   69.5424 O   0  0  0  0  0  0  0  0  0  0  0  0
  -51.5784   -2.5879   70.9271 C   0  0  0  0  0  0  0  0  0  0  0  0
  -51.8149   -3.4274   72.1255 C   0  0  0  0  0  0  0  0  0  0  0  0
  -52.7624   -4.1930   72.2355 O   0  0  0  0  0  0  0  0  0  0  0  0
  -50.2276    0.6056   67.9122 H   0  0  0  0  0  0  0  0  0  0  0  0
  -53.5524   -3.6661   68.6708 H   0  0  0  0  0  0  0  0  0  0  0  0
  -50.2948   -6.0259   76.4468 C   0  0  0  0  0  0  0  0  0  0  0  0
  -51.5648   -5.8346   75.9034 C   0  0  0  0  0  0  0  0  0  0  0  0
  -51.7436   -4.9691   74.8209 C   0  0  0  0  0  0  0  0  0  0  0  0
  -50.6439   -4.3083   74.2608 C   0  0  0  0  0  0  0  0  0  0  0  0
  -49.3618   -4.5667   74.7653 C   0  0  0  0  0  0  0  0  0  0  0  0
  -49.1867   -5.4230   75.8543 C   0  0  0  0  0  0  0  0  0  0  0  0
  -51.2402   -7.8411   77.5671 C   0  0  0  0  0  0  0  0  0  0  0  0
  -50.2150   -6.8492   77.5370 O   0  0  0  0  0  0  0  0  0  0  0  0
  -52.5638   -2.2842   67.4226 O   0  0  0  0  0  0  0  0  0  0  0  0
  -53.7952   -1.5594   67.3576 C   0  0  0  0  0  0  0  0  0  0  0  0
 22 23  1  0  0  0
 23 16  1  0  0  0
 16 17  2  0  0  0
 17 18  1  0  0  0
 18 19  2  0  0  0
 19  1  1  0  0  0
  1  2  2  0  0  0
  2  3  1  0  0  0
  3  4  1  0  0  0
  4  5  2  0  0  0
  5  6  1  0  0  0
  6  7  1  0  0  0
  6  8  2  0  0  0
  8 24  1  0  0  0
 24 25  1  0  0  0
  8  9  1  0  0  0
  9 10  1  0  0  0
  9 11  2  0  0  0
  4 11  1  0  0  0
 11 12  1  0  0  0
  1 12  1  0  0  0
 12 13  2  0  0  0
 19 20  1  0  0  0
 20 21  2  0  0  0
 16 21  1  0  0  0
  7 14  1  0  0  0
 10 15  1  0  0  0
M  END
> <minimizedAffinity>
-7.35666

$$$$
ligand_37


 25 27  0  0  0  0  0  0  0  0999 V2000
  -52.4218   -3.1515   72.6021 C   0  0  0  0  0  0  0  0  0  0  0  0
  -53.4715   -3.8783   73.0093 C   0  0  0  0  0  0  0  0  0  0  0  0
  -53.5024   -4.7193   74.0930 O   0  0  0  0  0  0  0  0  0  0  0  0
  -52.2957   -5.0453   74.6654 C   0  0  0  0  0  0  0  0  0  0  0  0
  -52.3114   -6.1172   75.5660 C   0  0  0  0  0  0  0  0  0  0  0  0
  -51.1189   -6.5420   76.1441 C   0  0  0  0  0  0  0  0  0  0  0  0
  -51.1060   -7.5946   77.0131 O   0  0  0  0  0  0  0  0  0  0  0  0
  -49.9237   -5.8979   75.8224 C   0  0  0  0  0  0  0  0  0  0  0  0
  -49.9198   -4.7954   74.9590 C   0  0  0  0  0  0  0  0  0  0  0  0
  -48.7204   -4.1936   74.6926 O   0  0  0  0  0  0  0  0  0  0  0  0
  -51.1072   -4.3685   74.3645 C   0  0  0  0  0  0  0  0  0  0  0  0
  -51.1680   -3.2474   73.3968 C   0  0  0  0  0  0  0  0  0  0  0  0
  -50.2586   -2.4454   73.2367 O   0  0  0  0  0  0  0  0  0  0  0  0
  -52.0186   -7.8139   77.2645 H   0  0  0  0  0  0  0  0  0  0  0  0
  -48.0760   -4.5621   75.3259 H   0  0  0  0  0  0  0  0  0  0  0  0
  -52.8878   -1.1023   68.8913 C   0  0  0  0  0  0  0  0  0  0  0  0
  -53.2116   -0.4515   70.0815 C   0  0  0  0  0  0  0  0  0  0  0  0
  -53.0318   -1.0974   71.3077 C   0  0  0  0  0  0  0  0  0  0  0  0
  -52.5024   -2.3926   71.3484 C   0  0  0  0  0  0  0  0  0  0  0  0
  -52.1088   -3.0079   70.1519 C   0  0  0  0  0  0  0  0  0  0  0  0
  -52.2999   -2.3655   68.9270 C   0  0  0  0  0  0  0  0  0  0  0  0
  -54.4865   -0.5678   67.2782 C   0  0  0  0  0  0  0  0  0  0  0  0
  -53.1424   -0.4192   67.7333 O   0  0  0  0  0  0  0  0  0  0  0  0
  -48.7191   -6.2855   76.3560 O   0  0  0  0  0  0  0  0  0  0  0  0
  -48.4279   -5.5164   77.5263 C   0  0  0  0  0  0  0  0  0  0  0  0
 22 23  1  0  0  0
 23 16  1  0  0  0
 16 17  2  0  0  0
 17 18  1  0  0  0
 18 19  2  0  0  0
 19  1  1  0  0  0
  1  2  2  0  0  0
  2  3  1  0  0  0
  3  4  1  0  0  0
  4  5  2  0  0  0
  5  6  1  0  0  0
  6  7  1  0  0  0
  6  8  2  0  0  0
  8 24  1  0  0  0
 24 25  1  0  0  0
  8  9  1  0  0  0
  9 10  1  0  0  0
  9 11  2  0  0  0
  4 11  1  0  0  0
 11 12  1  0  0  0
  1 12  1  0  0  0
 12 13  2  0  0  0
 19 20  1  0  0  0
 20 21  2  0  0  0
 16 21  1  0  0  0
  7 14  1  0  0  0
 10 15  1  0  0  0
M  END
> <minimizedAffinity>
-7.10925

$$$$
ligand_37


 25 27  0  0  0  0  0  0  0  0999 V2000
  -51.0102   -4.6422   74.9338 C   0  0  0  0  0  0  0  0  0  0  0  0
  -52.2815   -4.9318   74.6243 C   0  0  0  0  0  0  0  0  0  0  0  0
  -52.9474   -4.5424   73.4897 O   0  0  0  0  0  0  0  0  0  0  0  0
  -52.3561   -3.5672   72.7219 C   0  0  0  0  0  0  0  0  0  0  0  0
  -53.1675   -2.9760   71.7460 C   0  0  0  0  0  0  0  0  0  0  0  0
  -52.6564   -1.9426   70.9664 C   0  0  0  0  0  0  0  0  0  0  0  0
  -53.4327   -1.3397   70.0191 O   0  0  0  0  0  0  0  0  0  0  0  0
  -51.3454   -1.5077   71.1634 C   0  0  0  0  0  0  0  0  0  0  0  0
  -50.5222   -2.1347   72.1069 C   0  0  0  0  0  0  0  0  0  0  0  0
  -49.2407   -1.6763   72.2453 O   0  0  0  0  0  0  0  0  0  0  0  0
  -51.0274   -3.1633   72.9022 C   0  0  0  0  0  0  0  0  0  0  0  0
  -50.2319   -3.8313   73.9595 C   0  0  0  0  0  0  0  0  0  0  0  0
  -49.0164   -3.7321   74.0523 O   0  0  0  0  0  0  0  0  0  0  0  0
  -54.2404   -1.8632   69.8859 H   0  0  0  0  0  0  0  0  0  0  0  0
  -49.0771   -1.0731   71.4959 H   0  0  0  0  0  0  0  0  0  0  0  0
  -49.6736   -5.6155   78.8648 C   0  0  0  0  0  0  0  0  0  0  0  0
  -50.2353   -6.6094   78.0638 C   0  0  0  0  0  0  0  0  0  0  0  0
  -50.6464   -6.3141   76.7612 C   0  0  0  0  0  0  0  0  0  0  0  0
  -50.4736   -5.0243   76.2454 C   0  0  0  0  0  0  0  0  0  0  0  0
  -49.8381   -4.0533   77.0318 C   0  0  0  0  0  0  0  0  0  0  0  0
  -49.4385   -4.3471   78.3371 C   0  0  0  0  0  0  0  0  0  0  0  0
  -50.4479   -6.5083   80.8765 C   0  0  0  0  0  0  0  0  0  0  0  0
  -49.3458   -5.9750   80.1438 O   0  0  0  0  0  0  0  0  0  0  0  0
  -50.7975   -0.4847   70.4289 O   0  0  0  0  0  0  0  0  0  0  0  0
  -50.2424   -0.9932   69.2128 C   0  0  0  0  0  0  0  0  0  0  0  0
 22 23  1  0  0  0
 23 16  1  0  0  0
 16 17  2  0  0  0
 17 18  1  0  0  0
 18 19  2  0  0  0
 19  1  1  0  0  0
  1  2  2  0  0  0
  2  3  1  0  0  0
  3  4  1  0  0  0
  4  5  2  0  0  0
  5  6  1  0  0  0
  6  7  1  0  0  0
  6  8  2  0  0  0
  8 24  1  0  0  0
 24 25  1  0  0  0
  8  9  1  0  0  0
  9 10  1  0  0  0
  9 11  2  0  0  0
  4 11  1  0  0  0
 11 12  1  0  0  0
  1 12  1  0  0  0
 12 13  2  0  0  0
 19 20  1  0  0  0
 20 21  2  0  0  0
 16 21  1  0  0  0
  7 14  1  0  0  0
 10 15  1  0  0  0
M  END
> <minimizedAffinity>
-7.03153

$$$$
