ligand_14


 28 31  0  0  0  0  0  0  0  0999 V2000
  -52.7485   -0.1802   69.0315 C   0  0  0  0  0  0  0  0  0  0  0  0
  -53.1120    1.1570   69.7054 C   0  0  0  0  0  0  0  0  0  0  0  0
  -51.3295   -0.0378   68.4353 C   0  0  0  0  0  0  0  0  0  0  0  0
  -50.2164   -0.0077   69.4708 C   0  0  0  0  0  0  0  0  0  0  0  0
  -50.5391   -0.7401   70.7669 C   0  0  0  0  0  0  0  0  0  0  0  0
  -51.4763   -1.9617   70.6030 C   0  0  0  0  0  0  0  0  0  0  0  0
  -50.8291   -3.0101   69.6429 C   0  0  0  0  0  0  0  0  0  0  0  0
  -51.5960   -2.7022   71.9592 C   0  0  0  0  0  0  0  0  0  0  0  0
  -50.4074   -3.0895   72.6225 C   0  0  0  0  0  0  0  0  0  0  0  0
  -50.5102   -3.8127   73.8026 C   0  0  0  0  0  0  0  0  0  0  0  0
  -49.4554   -4.2712   74.5308 O   0  0  0  0  0  0  0  0  0  0  0  0
  -49.9713   -4.9284   75.5995 C   0  0  0  0  0  0  0  0  0  0  0  0
  -51.3458   -4.8934   75.5655 C   0  0  0  0  0  0  0  0  0  0  0  0
  -51.7093   -4.1760   74.3888 C   0  0  0  0  0  0  0  0  0  0  0  0
  -52.9188   -3.8105   73.7520 C   0  0  0  0  0  0  0  0  0  0  0  0
  -54.2494   -4.1805   74.3557 C   0  0  0  0  0  0  0  0  0  0  0  0
  -52.8387   -3.0751   72.5176 C   0  0  0  0  0  0  0  0  0  0  0  0
  -54.1051   -2.7901   71.7431 C   0  0  0  0  0  0  0  0  0  0  0  0
  -54.0570   -1.5025   70.9222 C   0  0  0  0  0  0  0  0  0  0  0  0
  -52.8418   -1.4864   69.9544 C   0  0  0  0  0  0  0  0  0  0  0  0
  -53.7694   -0.3529   67.8859 C   0  0  0  0  0  0  0  0  0  0  0  0
  -54.3574    0.5806   67.3455 O   0  0  0  0  0  0  0  0  0  0  0  0
  -55.2246   -1.9865   67.0446 C   0  0  0  0  0  0  0  0  0  0  0  0
  -53.9184   -1.6528   67.5156 O   0  0  0  0  0  0  0  0  0  0  0  0
  -54.0807   -0.3742   71.8197 O   0  0  0  0  0  0  0  0  0  0  0  0
  -55.1109   -0.1028   72.6609 C   0  0  0  0  0  0  0  0  0  0  0  0
  -56.4419    0.3307   72.1070 C   0  0  0  0  0  0  0  0  0  0  0  0
  -54.9545   -0.1981   73.8769 O   0  0  0  0  0  0  0  0  0  0  0  0
 23 24  1  0  0  0
 24 21  1  0  0  0
 21 22  2  0  0  0
 21  1  1  0  0  0
  1  2  1  0  0  0
  1  3  1  0  0  0
  3  4  1  0  0  0
  4  5  1  0  0  0
  5  6  1  0  0  0
  6  7  1  0  0  0
  6  8  1  0  0  0
  8  9  2  0  0  0
  9 10  1  0  0  0
 10 11  1  0  0  0
 11 12  1  0  0  0
 12 13  2  0  0  0
 13 14  1  0  0  0
 10 14  2  0  0  0
 14 15  1  0  0  0
 15 16  1  0  0  0
 15 17  2  0  0  0
  8 17  1  0  0  0
 17 18  1  0  0  0
 18 19  1  0  0  0
 25 26  1  0  0  0
 26 27  1  0  0  0
 26 28  2  0  0  0
 19 20  1  0  0  0
  1 20  1  0  0  0
  6 20  1  0  0  0
 19 25  1  0  0  0
M  END
> <minimizedAffinity>
-7.88027

$$$$
ligand_14


 28 31  0  0  0  0  0  0  0  0999 V2000
  -52.7234   -1.1764   70.3726 C   0  0  0  0  0  0  0  0  0  0  0  0
  -53.3265    0.0287   71.1198 C   0  0  0  0  0  0  0  0  0  0  0  0
  -51.3690   -0.7316   69.7752 C   0  0  0  0  0  0  0  0  0  0  0  0
  -50.2650   -0.5399   70.8031 C   0  0  0  0  0  0  0  0  0  0  0  0
  -50.4181   -1.3864   72.0602 C   0  0  0  0  0  0  0  0  0  0  0  0
  -51.1047   -2.7563   71.8373 C   0  0  0  0  0  0  0  0  0  0  0  0
  -50.2840   -3.6089   70.8179 C   0  0  0  0  0  0  0  0  0  0  0  0
  -51.0561   -3.5746   73.1526 C   0  0  0  0  0  0  0  0  0  0  0  0
  -49.8040   -3.7581   73.7860 C   0  0  0  0  0  0  0  0  0  0  0  0
  -49.7451   -4.5472   74.9262 C   0  0  0  0  0  0  0  0  0  0  0  0
  -48.6094   -4.8296   75.6215 O   0  0  0  0  0  0  0  0  0  0  0  0
  -48.9705   -5.6283   76.6568 C   0  0  0  0  0  0  0  0  0  0  0  0
  -50.3262   -5.8583   76.6343 C   0  0  0  0  0  0  0  0  0  0  0  0
  -50.8414   -5.1653   75.5003 C   0  0  0  0  0  0  0  0  0  0  0  0
  -52.1094   -5.0086   74.8923 C   0  0  0  0  0  0  0  0  0  0  0  0
  -53.3331   -5.6597   75.4844 C   0  0  0  0  0  0  0  0  0  0  0  0
  -52.1938   -4.2092   73.6987 C   0  0  0  0  0  0  0  0  0  0  0  0
  -53.5045   -4.1353   72.9493 C   0  0  0  0  0  0  0  0  0  0  0  0
  -53.7198   -2.8223   72.1984 C   0  0  0  0  0  0  0  0  0  0  0  0
  -52.5472   -2.5216   71.2246 C   0  0  0  0  0  0  0  0  0  0  0  0
  -53.7113   -1.4844   69.2263 C   0  0  0  0  0  0  0  0  0  0  0  0
  -54.6232   -0.7342   68.8876 O   0  0  0  0  0  0  0  0  0  0  0  0
  -53.7019   -2.6704   67.2046 C   0  0  0  0  0  0  0  0  0  0  0  0
  -53.4366   -2.6638   68.6078 O   0  0  0  0  0  0  0  0  0  0  0  0
  -53.9453   -1.7676   73.1554 O   0  0  0  0  0  0  0  0  0  0  0  0
  -55.0460   -1.6911   73.9461 C   0  0  0  0  0  0  0  0  0  0  0  0
  -56.3966   -1.4302   73.3344 C   0  0  0  0  0  0  0  0  0  0  0  0
  -54.9394   -1.8217   75.1642 O   0  0  0  0  0  0  0  0  0  0  0  0
 23 24  1  0  0  0
 24 21  1  0  0  0
 21 22  2  0  0  0
 21  1  1  0  0  0
  1  2  1  0  0  0
  1  3  1  0  0  0
  3  4  1  0  0  0
  4  5  1  0  0  0
  5  6  1  0  0  0
  6  7  1  0  0  0
  6  8  1  0  0  0
  8  9  2  0  0  0
  9 10  1  0  0  0
 10 11  1  0  0  0
 11 12  1  0  0  0
 12 13  2  0  0  0
 13 14  1  0  0  0
 10 14  2  0  0  0
 14 15  1  0  0  0
 15 16  1  0  0  0
 15 17  2  0  0  0
  8 17  1  0  0  0
 17 18  1  0  0  0
 18 19  1  0  0  0
 25 26  1  0  0  0
 26 27  1  0  0  0
 26 28  2  0  0  0
 19 20  1  0  0  0
  1 20  1  0  0  0
  6 20  1  0  0  0
 19 25  1  0  0  0
M  END
> <minimizedAffinity>
-7.67009

$$$$
ligand_14


 28 31  0  0  0  0  0  0  0  0999 V2000
  -54.1532   -0.0597   69.6345 C   0  0  0  0  0  0  0  0  0  0  0  0
  -53.9191   -0.8338   68.3229 C   0  0  0  0  0  0  0  0  0  0  0  0
  -55.6759   -0.0272   69.8980 C   0  0  0  0  0  0  0  0  0  0  0  0
  -56.2648   -1.3620   70.3266 C   0  0  0  0  0  0  0  0  0  0  0  0
  -55.2847   -2.2858   71.0381 C   0  0  0  0  0  0  0  0  0  0  0  0
  -54.2013   -1.5596   71.8727 C   0  0  0  0  0  0  0  0  0  0  0  0
  -54.8727   -0.6806   72.9756 C   0  0  0  0  0  0  0  0  0  0  0  0
  -53.3751   -2.6061   72.6627 C   0  0  0  0  0  0  0  0  0  0  0  0
  -54.0664   -3.5380   73.4729 C   0  0  0  0  0  0  0  0  0  0  0  0
  -53.3281   -4.4324   74.2352 C   0  0  0  0  0  0  0  0  0  0  0  0
  -53.8573   -5.3632   75.0757 O   0  0  0  0  0  0  0  0  0  0  0  0
  -52.8144   -6.0285   75.6326 C   0  0  0  0  0  0  0  0  0  0  0  0
  -51.6223   -5.5360   75.1554 C   0  0  0  0  0  0  0  0  0  0  0  0
  -51.9458   -4.4843   74.2494 C   0  0  0  0  0  0  0  0  0  0  0  0
  -51.2200   -3.5650   73.4555 C   0  0  0  0  0  0  0  0  0  0  0  0
  -49.7131   -3.5866   73.4355 C   0  0  0  0  0  0  0  0  0  0  0  0
  -51.9626   -2.6156   72.6693 C   0  0  0  0  0  0  0  0  0  0  0  0
  -51.2191   -1.5337   71.9199 C   0  0  0  0  0  0  0  0  0  0  0  0
  -51.9168   -1.0682   70.6429 C   0  0  0  0  0  0  0  0  0  0  0  0
  -53.3710   -0.5993   70.9243 C   0  0  0  0  0  0  0  0  0  0  0  0
  -53.6513    1.3746   69.3593 C   0  0  0  0  0  0  0  0  0  0  0  0
  -53.5859    1.8745   68.2391 O   0  0  0  0  0  0  0  0  0  0  0  0
  -54.0114    3.2757   70.6822 C   0  0  0  0  0  0  0  0  0  0  0  0
  -53.3238    2.0373   70.5006 O   0  0  0  0  0  0  0  0  0  0  0  0
  -51.8416   -2.1193   69.6588 O   0  0  0  0  0  0  0  0  0  0  0  0
  -50.8297   -2.2401   68.7620 C   0  0  0  0  0  0  0  0  0  0  0  0
  -49.9122   -1.0757   68.4998 C   0  0  0  0  0  0  0  0  0  0  0  0
  -50.6692   -3.2965   68.1532 O   0  0  0  0  0  0  0  0  0  0  0  0
 23 24  1  0  0  0
 24 21  1  0  0  0
 21 22  2  0  0  0
 21  1  1  0  0  0
  1  2  1  0  0  0
  1  3  1  0  0  0
  3  4  1  0  0  0
  4  5  1  0  0  0
  5  6  1  0  0  0
  6  7  1  0  0  0
  6  8  1  0  0  0
  8  9  2  0  0  0
  9 10  1  0  0  0
 10 11  1  0  0  0
 11 12  1  0  0  0
 12 13  2  0  0  0
 13 14  1  0  0  0
 10 14  2  0  0  0
 14 15  1  0  0  0
 15 16  1  0  0  0
 15 17  2  0  0  0
  8 17  1  0  0  0
 17 18  1  0  0  0
 18 19  1  0  0  0
 25 26  1  0  0  0
 26 27  1  0  0  0
 26 28  2  0  0  0
 19 20  1  0  0  0
  1 20  1  0  0  0
  6 20  1  0  0  0
 19 25  1  0  0  0
M  END
> <minimizedAffinity>
-7.30640

$$$$
ligand_14


 28 31  0  0  0  0  0  0  0  0999 V2000
  -55.3978   -1.4557   70.8473 C   0  0  0  0  0  0  0  0  0  0  0  0
  -55.4438   -2.3999   69.6305 C   0  0  0  0  0  0  0  0  0  0  0  0
  -56.6320   -1.7594   71.7271 C   0  0  0  0  0  0  0  0  0  0  0  0
  -56.5563   -3.0808   72.4756 C   0  0  0  0  0  0  0  0  0  0  0  0
  -55.1410   -3.5543   72.7802 C   0  0  0  0  0  0  0  0  0  0  0  0
  -54.1151   -2.4180   73.0131 C   0  0  0  0  0  0  0  0  0  0  0  0
  -54.5617   -1.5301   74.2180 C   0  0  0  0  0  0  0  0  0  0  0  0
  -52.7647   -3.0304   73.4640 C   0  0  0  0  0  0  0  0  0  0  0  0
  -52.7621   -3.9182   74.5661 C   0  0  0  0  0  0  0  0  0  0  0  0
  -51.5471   -4.4152   75.0164 C   0  0  0  0  0  0  0  0  0  0  0  0
  -51.3925   -5.2542   76.0772 O   0  0  0  0  0  0  0  0  0  0  0  0
  -50.0635   -5.4999   76.1939 C   0  0  0  0  0  0  0  0  0  0  0  0
  -49.3648   -4.8295   75.2172 C   0  0  0  0  0  0  0  0  0  0  0  0
  -50.3238   -4.1080   74.4483 C   0  0  0  0  0  0  0  0  0  0  0  0
  -50.2862   -3.2199   73.3474 C   0  0  0  0  0  0  0  0  0  0  0  0
  -48.9772   -2.8594   72.6931 C   0  0  0  0  0  0  0  0  0  0  0  0
  -51.5316   -2.6770   72.8726 C   0  0  0  0  0  0  0  0  0  0  0  0
  -51.5136   -1.6217   71.7906 C   0  0  0  0  0  0  0  0  0  0  0  0
  -52.7514   -1.6264   70.8950 C   0  0  0  0  0  0  0  0  0  0  0  0
  -54.0582   -1.4968   71.7250 C   0  0  0  0  0  0  0  0  0  0  0  0
  -55.5228   -0.0307   70.2656 C   0  0  0  0  0  0  0  0  0  0  0  0
  -55.1740    0.2785   69.1291 O   0  0  0  0  0  0  0  0  0  0  0  0
  -55.7645    2.2084   70.9154 C   0  0  0  0  0  0  0  0  0  0  0  0
  -56.0971    0.8379   71.1402 O   0  0  0  0  0  0  0  0  0  0  0  0
  -52.7232   -2.8045   70.0641 O   0  0  0  0  0  0  0  0  0  0  0  0
  -51.8995   -2.9525   68.9953 C   0  0  0  0  0  0  0  0  0  0  0  0
  -52.4777   -3.1016   67.6133 C   0  0  0  0  0  0  0  0  0  0  0  0
  -50.6806   -2.9780   69.1560 O   0  0  0  0  0  0  0  0  0  0  0  0
 23 24  1  0  0  0
 24 21  1  0  0  0
 21 22  2  0  0  0
 21  1  1  0  0  0
  1  2  1  0  0  0
  1  3  1  0  0  0
  3  4  1  0  0  0
  4  5  1  0  0  0
  5  6  1  0  0  0
  6  7  1  0  0  0
  6  8  1  0  0  0
  8  9  2  0  0  0
  9 10  1  0  0  0
 10 11  1  0  0  0
 11 12  1  0  0  0
 12 13  2  0  0  0
 13 14  1  0  0  0
 10 14  2  0  0  0
 14 15  1  0  0  0
 15 16  1  0  0  0
 15 17  2  0  0  0
  8 17  1  0  0  0
 17 18  1  0  0  0
 18 19  1  0  0  0
 25 26  1  0  0  0
 26 27  1  0  0  0
 26 28  2  0  0  0
 19 20  1  0  0  0
  1 20  1  0  0  0
  6 20  1  0  0  0
 19 25  1  0  0  0
M  END
> <minimizedAffinity>
-6.71459

$$$$
ligand_14


 28 31  0  0  0  0  0  0  0  0999 V2000
  -53.3881   -3.8908   74.6658 C   0  0  0  0  0  0  0  0  0  0  0  0
  -52.2022   -3.0973   75.2471 C   0  0  0  0  0  0  0  0  0  0  0  0
  -54.6665   -3.4416   75.4096 C   0  0  0  0  0  0  0  0  0  0  0  0
  -55.1426   -2.0439   75.0464 C   0  0  0  0  0  0  0  0  0  0  0  0
  -54.7524   -1.5873   73.6467 C   0  0  0  0  0  0  0  0  0  0  0  0
  -54.6617   -2.7230   72.5980 C   0  0  0  0  0  0  0  0  0  0  0  0
  -56.0406   -3.4449   72.4677 C   0  0  0  0  0  0  0  0  0  0  0  0
  -54.4133   -2.1089   71.1968 C   0  0  0  0  0  0  0  0  0  0  0  0
  -55.2906   -1.0968   70.7397 C   0  0  0  0  0  0  0  0  0  0  0  0
  -55.1136   -0.5925   69.4589 C   0  0  0  0  0  0  0  0  0  0  0  0
  -55.8949    0.3609   68.8812 O   0  0  0  0  0  0  0  0  0  0  0  0
  -55.4012    0.5720   67.6354 C   0  0  0  0  0  0  0  0  0  0  0  0
  -54.3098   -0.2339   67.4096 C   0  0  0  0  0  0  0  0  0  0  0  0
  -54.1195   -1.0078   68.5912 C   0  0  0  0  0  0  0  0  0  0  0  0
  -53.2262   -2.0214   69.0116 C   0  0  0  0  0  0  0  0  0  0  0  0
  -52.1247   -2.5029   68.1023 C   0  0  0  0  0  0  0  0  0  0  0  0
  -53.3998   -2.5731   70.3293 C   0  0  0  0  0  0  0  0  0  0  0  0
  -52.5523   -3.7497   70.7560 C   0  0  0  0  0  0  0  0  0  0  0  0
  -52.2786   -3.8084   72.2580 C   0  0  0  0  0  0  0  0  0  0  0  0
  -53.5965   -3.7925   73.0804 C   0  0  0  0  0  0  0  0  0  0  0  0
  -53.0952   -5.3697   75.0000 C   0  0  0  0  0  0  0  0  0  0  0  0
  -53.9663   -6.2145   75.1912 O   0  0  0  0  0  0  0  0  0  0  0  0
  -51.3718   -6.5911   76.0159 C   0  0  0  0  0  0  0  0  0  0  0  0
  -51.7631   -5.6422   75.0231 O   0  0  0  0  0  0  0  0  0  0  0  0
  -51.3780   -2.7393   72.6116 O   0  0  0  0  0  0  0  0  0  0  0  0
  -50.0435   -2.7663   72.3645 C   0  0  0  0  0  0  0  0  0  0  0  0
  -49.4559   -1.8776   71.3008 C   0  0  0  0  0  0  0  0  0  0  0  0
  -49.3147   -3.5261   73.0000 O   0  0  0  0  0  0  0  0  0  0  0  0
 23 24  1  0  0  0
 24 21  1  0  0  0
 21 22  2  0  0  0
 21  1  1  0  0  0
  1  2  1  0  0  0
  1  3  1  0  0  0
  3  4  1  0  0  0
  4  5  1  0  0  0
  5  6  1  0  0  0
  6  7  1  0  0  0
  6  8  1  0  0  0
  8  9  2  0  0  0
  9 10  1  0  0  0
 10 11  1  0  0  0
 11 12  1  0  0  0
 12 13  2  0  0  0
 13 14  1  0  0  0
 10 14  2  0  0  0
 14 15  1  0  0  0
 15 16  1  0  0  0
 15 17  2  0  0  0
  8 17  1  0  0  0
 17 18  1  0  0  0
 18 19  1  0  0  0
 25 26  1  0  0  0
 26 27  1  0  0  0
 26 28  2  0  0  0
 19 20  1  0  0  0
  1 20  1  0  0  0
  6 20  1  0  0  0
 19 25  1  0  0  0
M  END
> <minimizedAffinity>
-6.51788

$$$$
