ligand_5


 17 18  0  0  0  0  0  0  0  0999 V2000
  -47.6313   -5.3313   74.8808 C   0  0  0  0  0  0  0  0  0  0  0  0
  -48.7236   -4.5046   74.2546 C   0  0  0  0  0  0  0  0  0  0  0  0
  -48.3425   -3.7795   73.1050 C   0  0  0  0  0  0  0  0  0  0  0  0
  -49.2565   -2.9744   72.4538 C   0  0  0  0  0  0  0  0  0  0  0  0
  -50.5652   -2.8901   72.9087 C   0  0  0  0  0  0  0  0  0  0  0  0
  -51.0065   -3.5921   74.0342 C   0  0  0  0  0  0  0  0  0  0  0  0
  -52.4359   -3.4781   74.5057 C   0  0  0  0  0  0  0  0  0  0  0  0
  -50.0618   -4.4177   74.7430 C   0  0  0  0  0  0  0  0  0  0  0  0
  -51.2576   -1.9480   72.0119 C   0  0  0  0  0  0  0  0  0  0  0  0
  -52.4529   -1.7121   72.0087 O   0  0  0  0  0  0  0  0  0  0  0  0
  -50.2361   -1.2665   71.1213 C   0  0  0  0  0  0  0  0  0  0  0  0
  -50.7285   -1.0724   69.6993 C   0  0  0  0  0  0  0  0  0  0  0  0
  -49.0063   -2.1784   71.2114 C   0  0  0  0  0  0  0  0  0  0  0  0
  -50.5977   -5.1297   75.9867 C   0  0  0  0  0  0  0  0  0  0  0  0
  -51.1329   -6.5591   75.9763 C   0  0  0  0  0  0  0  0  0  0  0  0
  -50.0898   -7.4724   76.3225 O   0  0  0  0  0  0  0  0  0  0  0  0
  -49.4203   -7.4338   75.6177 H   0  0  0  0  0  0  0  0  0  0  0  0
  1  2  1  0  0  0
  2  3  2  0  0  0
  3  4  1  0  0  0
  4  5  2  0  0  0
  5  6  1  0  0  0
  6  7  1  0  0  0
  6  8  2  0  0  0
  2  8  1  0  0  0
  8 14  1  0  0  0
 14 15  1  0  0  0
 15 16  1  0  0  0
  5  9  1  0  0  0
  9 10  2  0  0  0
  9 11  1  0  0  0
 11 13  1  0  0  0
  4 13  1  0  0  0
 11 12  1  0  0  0
 16 17  1  0  0  0
M  END
> <minimizedAffinity>
-6.40579

$$$$
ligand_5


 17 18  0  0  0  0  0  0  0  0999 V2000
  -53.4553   -2.4090   69.9500 C   0  0  0  0  0  0  0  0  0  0  0  0
  -52.4448   -2.8269   70.9858 C   0  0  0  0  0  0  0  0  0  0  0  0
  -52.9805   -3.4802   72.1166 C   0  0  0  0  0  0  0  0  0  0  0  0
  -52.1508   -3.8965   73.1395 C   0  0  0  0  0  0  0  0  0  0  0  0
  -50.7796   -3.6988   73.0538 C   0  0  0  0  0  0  0  0  0  0  0  0
  -50.1877   -3.0685   71.9553 C   0  0  0  0  0  0  0  0  0  0  0  0
  -48.6932   -2.8663   71.8922 C   0  0  0  0  0  0  0  0  0  0  0  0
  -51.0384   -2.6039   70.8892 C   0  0  0  0  0  0  0  0  0  0  0  0
  -50.2032   -4.2359   74.2989 C   0  0  0  0  0  0  0  0  0  0  0  0
  -49.0157   -4.3626   74.5400 O   0  0  0  0  0  0  0  0  0  0  0  0
  -51.3247   -4.5577   75.2683 C   0  0  0  0  0  0  0  0  0  0  0  0
  -51.0816   -5.8357   76.0493 C   0  0  0  0  0  0  0  0  0  0  0  0
  -52.5702   -4.6273   74.3762 C   0  0  0  0  0  0  0  0  0  0  0  0
  -50.3332   -1.8900   69.7342 C   0  0  0  0  0  0  0  0  0  0  0  0
  -50.3027   -0.3726   69.5723 C   0  0  0  0  0  0  0  0  0  0  0  0
  -50.8587    0.2522   70.7311 O   0  0  0  0  0  0  0  0  0  0  0  0
  -51.7995    0.0079   70.7730 H   0  0  0  0  0  0  0  0  0  0  0  0
  1  2  1  0  0  0
  2  3  2  0  0  0
  3  4  1  0  0  0
  4  5  2  0  0  0
  5  6  1  0  0  0
  6  7  1  0  0  0
  6  8  2  0  0  0
  2  8  1  0  0  0
  8 14  1  0  0  0
 14 15  1  0  0  0
 15 16  1  0  0  0
  5  9  1  0  0  0
  9 10  2  0  0  0
  9 11  1  0  0  0
 11 13  1  0  0  0
  4 13  1  0  0  0
 11 12  1  0  0  0
 16 17  1  0  0  0
M  END
> <minimizedAffinity>
-6.26837

$$$$
ligand_5


 17 18  0  0  0  0  0  0  0  0999 V2000
  -48.7136   -3.4594   73.0088 C   0  0  0  0  0  0  0  0  0  0  0  0
  -50.0044   -3.3501   72.2404 C   0  0  0  0  0  0  0  0  0  0  0  0
  -49.8599   -3.1794   70.8467 C   0  0  0  0  0  0  0  0  0  0  0  0
  -50.9743   -3.0525   70.0406 C   0  0  0  0  0  0  0  0  0  0  0  0
  -52.2474   -3.1169   70.5899 C   0  0  0  0  0  0  0  0  0  0  0  0
  -52.4563   -3.2955   71.9606 C   0  0  0  0  0  0  0  0  0  0  0  0
  -53.8534   -3.3594   72.5283 C   0  0  0  0  0  0  0  0  0  0  0  0
  -51.3065   -3.4044   72.8223 C   0  0  0  0  0  0  0  0  0  0  0  0
  -53.1919   -2.9312   69.4743 C   0  0  0  0  0  0  0  0  0  0  0  0
  -54.4025   -3.0532   69.5352 O   0  0  0  0  0  0  0  0  0  0  0  0
  -52.4238   -2.5043   68.2377 C   0  0  0  0  0  0  0  0  0  0  0  0
  -52.9514   -3.1414   66.9657 C   0  0  0  0  0  0  0  0  0  0  0  0
  -50.9760   -2.9007   68.5518 C   0  0  0  0  0  0  0  0  0  0  0  0
  -51.6026   -3.5612   74.3151 C   0  0  0  0  0  0  0  0  0  0  0  0
  -51.5194   -4.8926   75.0570 C   0  0  0  0  0  0  0  0  0  0  0  0
  -52.7254   -5.6343   74.8634 O   0  0  0  0  0  0  0  0  0  0  0  0
  -53.4464   -5.1377   75.2879 H   0  0  0  0  0  0  0  0  0  0  0  0
  1  2  1  0  0  0
  2  3  2  0  0  0
  3  4  1  0  0  0
  4  5  2  0  0  0
  5  6  1  0  0  0
  6  7  1  0  0  0
  6  8  2  0  0  0
  2  8  1  0  0  0
  8 14  1  0  0  0
 14 15  1  0  0  0
 15 16  1  0  0  0
  5  9  1  0  0  0
  9 10  2  0  0  0
  9 11  1  0  0  0
 11 13  1  0  0  0
  4 13  1  0  0  0
 11 12  1  0  0  0
 16 17  1  0  0  0
M  END
> <minimizedAffinity>
-6.24188

$$$$
ligand_5


 17 18  0  0  0  0  0  0  0  0999 V2000
  -48.1400   -3.8011   78.9504 C   0  0  0  0  0  0  0  0  0  0  0  0
  -49.0414   -4.9825   79.1959 C   0  0  0  0  0  0  0  0  0  0  0  0
  -49.2683   -5.2914   80.5544 C   0  0  0  0  0  0  0  0  0  0  0  0
  -50.0669   -6.3636   80.9017 C   0  0  0  0  0  0  0  0  0  0  0  0
  -50.6742   -7.1324   79.9184 C   0  0  0  0  0  0  0  0  0  0  0  0
  -50.4975   -6.8704   78.5566 C   0  0  0  0  0  0  0  0  0  0  0  0
  -51.1699   -7.7261   77.5106 C   0  0  0  0  0  0  0  0  0  0  0  0
  -49.6475   -5.7719   78.1729 C   0  0  0  0  0  0  0  0  0  0  0  0
  -51.4281   -8.1859   80.6203 C   0  0  0  0  0  0  0  0  0  0  0  0
  -52.1970   -8.9782   80.1051 O   0  0  0  0  0  0  0  0  0  0  0  0
  -51.0537   -8.1706   82.0902 C   0  0  0  0  0  0  0  0  0  0  0  0
  -52.2388   -8.4214   83.0041 C   0  0  0  0  0  0  0  0  0  0  0  0
  -50.4221   -6.7878   82.2922 C   0  0  0  0  0  0  0  0  0  0  0  0
  -49.4659   -5.5612   76.6684 C   0  0  0  0  0  0  0  0  0  0  0  0
  -50.1622   -4.4544   75.8809 C   0  0  0  0  0  0  0  0  0  0  0  0
  -51.4365   -4.9105   75.4225 O   0  0  0  0  0  0  0  0  0  0  0  0
  -51.2793   -5.6305   74.7874 H   0  0  0  0  0  0  0  0  0  0  0  0
  1  2  1  0  0  0
  2  3  2  0  0  0
  3  4  1  0  0  0
  4  5  2  0  0  0
  5  6  1  0  0  0
  6  7  1  0  0  0
  6  8  2  0  0  0
  2  8  1  0  0  0
  8 14  1  0  0  0
 14 15  1  0  0  0
 15 16  1  0  0  0
  5  9  1  0  0  0
  9 10  2  0  0  0
  9 11  1  0  0  0
 11 13  1  0  0  0
  4 13  1  0  0  0
 11 12  1  0  0  0
 16 17  1  0  0  0
M  END
> <minimizedAffinity>
-6.16786

$$$$
ligand_5


 17 18  0  0  0  0  0  0  0  0999 V2000
  -53.0769   -1.8753   72.2838 C   0  0  0  0  0  0  0  0  0  0  0  0
  -51.9005   -2.5936   72.8911 C   0  0  0  0  0  0  0  0  0  0  0  0
  -52.2210   -3.5077   73.9178 C   0  0  0  0  0  0  0  0  0  0  0  0
  -51.2223   -4.2142   74.5591 C   0  0  0  0  0  0  0  0  0  0  0  0
  -49.8962   -4.0508   74.1830 C   0  0  0  0  0  0  0  0  0  0  0  0
  -49.5161   -3.1695   73.1665 C   0  0  0  0  0  0  0  0  0  0  0  0
  -48.0651   -3.0123   72.7817 C   0  0  0  0  0  0  0  0  0  0  0  0
  -50.5404   -2.4040   72.5024 C   0  0  0  0  0  0  0  0  0  0  0  0
  -49.1028   -4.9243   75.0653 C   0  0  0  0  0  0  0  0  0  0  0  0
  -47.9111   -5.1545   74.9590 O   0  0  0  0  0  0  0  0  0  0  0  0
  -49.9937   -5.4547   76.1727 C   0  0  0  0  0  0  0  0  0  0  0  0
  -49.7065   -6.9039   76.5186 C   0  0  0  0  0  0  0  0  0  0  0  0
  -51.4135   -5.2357   75.6359 C   0  0  0  0  0  0  0  0  0  0  0  0
  -50.0554   -1.4313   71.4256 C   0  0  0  0  0  0  0  0  0  0  0  0
  -50.0807   -1.7443   69.9318 C   0  0  0  0  0  0  0  0  0  0  0  0
  -50.6860   -3.0199   69.7117 O   0  0  0  0  0  0  0  0  0  0  0  0
  -50.1091   -3.6917   70.1146 H   0  0  0  0  0  0  0  0  0  0  0  0
  1  2  1  0  0  0
  2  3  2  0  0  0
  3  4  1  0  0  0
  4  5  2  0  0  0
  5  6  1  0  0  0
  6  7  1  0  0  0
  6  8  2  0  0  0
  2  8  1  0  0  0
  8 14  1  0  0  0
 14 15  1  0  0  0
 15 16  1  0  0  0
  5  9  1  0  0  0
  9 10  2  0  0  0
  9 11  1  0  0  0
 11 13  1  0  0  0
  4 13  1  0  0  0
 11 12  1  0  0  0
 16 17  1  0  0  0
M  END
> <minimizedAffinity>
-6.13111

$$$$
