ligand_53


 28 31  0  0  0  0  0  0  0  0999 V2000
  -51.5052   -5.3515   74.8693 C   0  0  0  0  0  0  0  0  0  0  0  0
  -51.6535   -6.7382   75.2121 O   0  0  0  0  0  0  0  0  0  0  0  0
  -50.9899   -7.0023   76.4536 C   0  0  0  0  0  0  0  0  0  0  0  0
  -50.4859   -5.6825   77.0248 C   0  0  0  0  0  0  0  0  0  0  0  0
  -49.0408   -5.7551   77.4956 C   0  0  0  0  0  0  0  0  0  0  0  0
  -48.2204   -5.4209   76.3656 O   0  0  0  0  0  0  0  0  0  0  0  0
  -49.0435   -4.9337   75.3000 C   0  0  0  0  0  0  0  0  0  0  0  0
  -50.4671   -4.7774   75.8213 C   0  0  0  0  0  0  0  0  0  0  0  0
  -55.2785   -4.8946   75.3751 C   0  0  0  0  0  0  0  0  0  0  0  0
  -54.0014   -5.4654   75.2486 C   0  0  0  0  0  0  0  0  0  0  0  0
  -52.8700   -4.6945   74.9299 C   0  0  0  0  0  0  0  0  0  0  0  0
  -53.0470   -3.3226   74.7210 C   0  0  0  0  0  0  0  0  0  0  0  0
  -54.3102   -2.7396   74.8369 C   0  0  0  0  0  0  0  0  0  0  0  0
  -55.4211   -3.5202   75.1690 C   0  0  0  0  0  0  0  0  0  0  0  0
  -56.6318   -2.8959   75.2890 O   0  0  0  0  0  0  0  0  0  0  0  0
  -56.5046   -1.9383   75.1952 H   0  0  0  0  0  0  0  0  0  0  0  0
  -55.8184   -7.0615   76.2345 C   0  0  0  0  0  0  0  0  0  0  0  0
  -56.2391   -5.8123   75.7066 O   0  0  0  0  0  0  0  0  0  0  0  0
  -48.6994   -4.8134   78.6337 C   0  0  0  0  0  0  0  0  0  0  0  0
  -47.4219   -4.2646   78.7856 C   0  0  0  0  0  0  0  0  0  0  0  0
  -47.1284   -3.4248   79.8614 C   0  0  0  0  0  0  0  0  0  0  0  0
  -48.1102   -3.1240   80.8101 C   0  0  0  0  0  0  0  0  0  0  0  0
  -47.7693   -2.3000   81.8471 O   0  0  0  0  0  0  0  0  0  0  0  0
  -49.3949   -3.6582   80.6867 C   0  0  0  0  0  0  0  0  0  0  0  0
  -49.6757   -4.4931   79.5928 C   0  0  0  0  0  0  0  0  0  0  0  0
  -46.8278   -2.0762   81.7777 H   0  0  0  0  0  0  0  0  0  0  0  0
  -50.4739   -3.4841   81.5121 O   0  0  0  0  0  0  0  0  0  0  0  0
  -51.2651   -4.6206   81.8266 C   0  0  0  0  0  0  0  0  0  0  0  0
 17 18  1  0  0  0
 18  9  1  0  0  0
  9 10  2  0  0  0
 10 11  1  0  0  0
 11  1  1  0  0  0
  1  2  1  0  0  0
  2  3  1  0  0  0
  3  4  1  0  0  0
  4  5  1  0  0  0
  5 19  1  0  0  0
 19 20  2  0  0  0
 20 21  1  0  0  0
 21 22  2  0  0  0
 22 23  1  0  0  0
 22 24  1  0  0  0
 24 27  1  0  0  0
 27 28  1  0  0  0
 24 25  2  0  0  0
 19 25  1  0  0  0
  5  6  1  0  0  0
  6  7  1  0  0  0
  7  8  1  0  0  0
  1  8  1  0  0  0
  4  8  1  0  0  0
 11 12  2  0  0  0
 12 13  1  0  0  0
 13 14  2  0  0  0
  9 14  1  0  0  0
 14 15  1  0  0  0
 23 26  1  0  0  0
 15 16  1  0  0  0
M  END
> <minimizedAffinity>
-7.53898

$$$$
ligand_53


 28 31  0  0  0  0  0  0  0  0999 V2000
  -51.3811   -2.8521   70.3420 C   0  0  0  0  0  0  0  0  0  0  0  0
  -50.0685   -2.3735   70.0094 O   0  0  0  0  0  0  0  0  0  0  0  0
  -50.1221   -0.9689   69.7343 C   0  0  0  0  0  0  0  0  0  0  0  0
  -51.5312   -0.4700   70.0299 C   0  0  0  0  0  0  0  0  0  0  0  0
  -52.0948    0.4034   68.9187 C   0  0  0  0  0  0  0  0  0  0  0  0
  -52.7493   -0.4771   67.9923 O   0  0  0  0  0  0  0  0  0  0  0  0
  -52.8278   -1.7928   68.5518 C   0  0  0  0  0  0  0  0  0  0  0  0
  -52.3515   -1.7325   69.9983 C   0  0  0  0  0  0  0  0  0  0  0  0
  -52.5778   -4.2999   73.6847 C   0  0  0  0  0  0  0  0  0  0  0  0
  -52.5437   -3.8321   72.3608 C   0  0  0  0  0  0  0  0  0  0  0  0
  -51.3801   -3.2821   71.7955 C   0  0  0  0  0  0  0  0  0  0  0  0
  -50.2380   -3.1932   72.5987 C   0  0  0  0  0  0  0  0  0  0  0  0
  -50.2558   -3.6479   73.9186 C   0  0  0  0  0  0  0  0  0  0  0  0
  -51.4184   -4.2052   74.4585 C   0  0  0  0  0  0  0  0  0  0  0  0
  -51.3760   -4.6530   75.7498 O   0  0  0  0  0  0  0  0  0  0  0  0
  -50.4666   -4.5790   76.0806 H   0  0  0  0  0  0  0  0  0  0  0  0
  -54.7146   -3.9609   74.7067 C   0  0  0  0  0  0  0  0  0  0  0  0
  -53.7983   -4.8124   74.0349 O   0  0  0  0  0  0  0  0  0  0  0  0
  -53.0942    1.4459   69.3802 C   0  0  0  0  0  0  0  0  0  0  0  0
  -54.0727    1.9657   68.5267 C   0  0  0  0  0  0  0  0  0  0  0  0
  -54.9600    2.9476   68.9710 C   0  0  0  0  0  0  0  0  0  0  0  0
  -54.8785    3.4321   70.2798 C   0  0  0  0  0  0  0  0  0  0  0  0
  -55.7683    4.3974   70.6631 O   0  0  0  0  0  0  0  0  0  0  0  0
  -53.9108    2.9342   71.1554 C   0  0  0  0  0  0  0  0  0  0  0  0
  -53.0329    1.9393   70.6950 C   0  0  0  0  0  0  0  0  0  0  0  0
  -56.3217    4.6380   69.9034 H   0  0  0  0  0  0  0  0  0  0  0  0
  -53.6760    3.2877   72.4576 O   0  0  0  0  0  0  0  0  0  0  0  0
  -54.6689    2.9767   73.4240 C   0  0  0  0  0  0  0  0  0  0  0  0
 17 18  1  0  0  0
 18  9  1  0  0  0
  9 10  2  0  0  0
 10 11  1  0  0  0
 11  1  1  0  0  0
  1  2  1  0  0  0
  2  3  1  0  0  0
  3  4  1  0  0  0
  4  5  1  0  0  0
  5 19  1  0  0  0
 19 20  2  0  0  0
 20 21  1  0  0  0
 21 22  2  0  0  0
 22 23  1  0  0  0
 22 24  1  0  0  0
 24 27  1  0  0  0
 27 28  1  0  0  0
 24 25  2  0  0  0
 19 25  1  0  0  0
  5  6  1  0  0  0
  6  7  1  0  0  0
  7  8  1  0  0  0
  1  8  1  0  0  0
  4  8  1  0  0  0
 11 12  2  0  0  0
 12 13  1  0  0  0
 13 14  2  0  0  0
  9 14  1  0  0  0
 14 15  1  0  0  0
 23 26  1  0  0  0
 15 16  1  0  0  0
M  END
> <minimizedAffinity>
-7.46546

$$$$
ligand_53


 28 31  0  0  0  0  0  0  0  0999 V2000
  -51.5281   -5.3260   74.8329 C   0  0  0  0  0  0  0  0  0  0  0  0
  -51.7085   -6.7077   75.1806 O   0  0  0  0  0  0  0  0  0  0  0  0
  -51.0627   -6.9796   76.4297 C   0  0  0  0  0  0  0  0  0  0  0  0
  -50.5368   -5.6679   76.9997 C   0  0  0  0  0  0  0  0  0  0  0  0
  -49.0981   -5.7682   77.4850 C   0  0  0  0  0  0  0  0  0  0  0  0
  -48.2600   -5.4567   76.3615 O   0  0  0  0  0  0  0  0  0  0  0  0
  -49.0624   -4.9575   75.2857 C   0  0  0  0  0  0  0  0  0  0  0  0
  -50.4875   -4.7692   75.7923 C   0  0  0  0  0  0  0  0  0  0  0  0
  -54.2865   -2.7306   74.2359 C   0  0  0  0  0  0  0  0  0  0  0  0
  -53.0424   -3.3812   74.2741 C   0  0  0  0  0  0  0  0  0  0  0  0
  -52.8793   -4.6405   74.8770 C   0  0  0  0  0  0  0  0  0  0  0  0
  -53.9997   -5.2380   75.4644 C   0  0  0  0  0  0  0  0  0  0  0  0
  -55.2427   -4.6028   75.4407 C   0  0  0  0  0  0  0  0  0  0  0  0
  -55.3883   -3.3572   74.8236 C   0  0  0  0  0  0  0  0  0  0  0  0
  -56.6315   -2.7879   74.8115 O   0  0  0  0  0  0  0  0  0  0  0  0
  -57.2699   -3.4144   75.1883 H   0  0  0  0  0  0  0  0  0  0  0  0
  -53.6283   -1.4781   72.3063 C   0  0  0  0  0  0  0  0  0  0  0  0
  -54.2348   -1.5247   73.5892 O   0  0  0  0  0  0  0  0  0  0  0  0
  -48.7483   -4.8284   78.6220 C   0  0  0  0  0  0  0  0  0  0  0  0
  -47.4858   -4.2372   78.7350 C   0  0  0  0  0  0  0  0  0  0  0  0
  -47.1824   -3.4000   79.8102 C   0  0  0  0  0  0  0  0  0  0  0  0
  -48.1389   -3.1447   80.7972 C   0  0  0  0  0  0  0  0  0  0  0  0
  -47.7891   -2.3213   81.8318 O   0  0  0  0  0  0  0  0  0  0  0  0
  -49.4080   -3.7219   80.7133 C   0  0  0  0  0  0  0  0  0  0  0  0
  -49.6996   -4.5535   79.6196 C   0  0  0  0  0  0  0  0  0  0  0  0
  -46.8590   -2.0640   81.7315 H   0  0  0  0  0  0  0  0  0  0  0  0
  -50.4617   -3.5952   81.5792 O   0  0  0  0  0  0  0  0  0  0  0  0
  -51.3553   -4.6911   81.7094 C   0  0  0  0  0  0  0  0  0  0  0  0
 17 18  1  0  0  0
 18  9  1  0  0  0
  9 10  2  0  0  0
 10 11  1  0  0  0
 11  1  1  0  0  0
  1  2  1  0  0  0
  2  3  1  0  0  0
  3  4  1  0  0  0
  4  5  1  0  0  0
  5 19  1  0  0  0
 19 20  2  0  0  0
 20 21  1  0  0  0
 21 22  2  0  0  0
 22 23  1  0  0  0
 22 24  1  0  0  0
 24 27  1  0  0  0
 27 28  1  0  0  0
 24 25  2  0  0  0
 19 25  1  0  0  0
  5  6  1  0  0  0
  6  7  1  0  0  0
  7  8  1  0  0  0
  1  8  1  0  0  0
  4  8  1  0  0  0
 11 12  2  0  0  0
 12 13  1  0  0  0
 13 14  2  0  0  0
  9 14  1  0  0  0
 14 15  1  0  0  0
 23 26  1  0  0  0
 15 16  1  0  0  0
M  END
> <minimizedAffinity>
-7.46233

$$$$
ligand_53


 28 31  0  0  0  0  0  0  0  0999 V2000
  -52.1881    0.4824   68.8862 C   0  0  0  0  0  0  0  0  0  0  0  0
  -52.8272   -0.3749   67.9276 O   0  0  0  0  0  0  0  0  0  0  0  0
  -52.9163   -1.7045   68.4528 C   0  0  0  0  0  0  0  0  0  0  0  0
  -52.4226   -1.6909   69.8943 C   0  0  0  0  0  0  0  0  0  0  0  0
  -51.4404   -2.8137   70.1939 C   0  0  0  0  0  0  0  0  0  0  0  0
  -50.1311   -2.3110   69.8858 O   0  0  0  0  0  0  0  0  0  0  0  0
  -50.2027   -0.9034   69.6331 C   0  0  0  0  0  0  0  0  0  0  0  0
  -51.6113   -0.4239   69.9629 C   0  0  0  0  0  0  0  0  0  0  0  0
  -53.9867    2.9938   71.1578 C   0  0  0  0  0  0  0  0  0  0  0  0
  -53.1076    2.0089   70.6785 C   0  0  0  0  0  0  0  0  0  0  0  0
  -53.2032    1.4977   69.3725 C   0  0  0  0  0  0  0  0  0  0  0  0
  -54.2218    1.9875   68.5480 C   0  0  0  0  0  0  0  0  0  0  0  0
  -55.1081    2.9623   69.0100 C   0  0  0  0  0  0  0  0  0  0  0  0
  -54.9879    3.4689   70.3072 C   0  0  0  0  0  0  0  0  0  0  0  0
  -55.8696    4.4365   70.7028 O   0  0  0  0  0  0  0  0  0  0  0  0
  -56.4232    4.6884   69.9464 H   0  0  0  0  0  0  0  0  0  0  0  0
  -54.6342    2.9949   73.4613 C   0  0  0  0  0  0  0  0  0  0  0  0
  -53.7133    3.3670   72.4466 O   0  0  0  0  0  0  0  0  0  0  0  0
  -51.4466   -3.2909   71.6328 C   0  0  0  0  0  0  0  0  0  0  0  0
  -50.2806   -3.3407   72.4037 C   0  0  0  0  0  0  0  0  0  0  0  0
  -50.3117   -3.8141   73.7167 C   0  0  0  0  0  0  0  0  0  0  0  0
  -51.5135   -4.2532   74.2800 C   0  0  0  0  0  0  0  0  0  0  0  0
  -51.4882   -4.7120   75.5683 O   0  0  0  0  0  0  0  0  0  0  0  0
  -52.6943   -4.2177   73.5348 C   0  0  0  0  0  0  0  0  0  0  0  0
  -52.6467   -3.7289   72.2190 C   0  0  0  0  0  0  0  0  0  0  0  0
  -50.5736   -4.6989   75.8914 H   0  0  0  0  0  0  0  0  0  0  0  0
  -53.9522   -4.6080   73.9107 O   0  0  0  0  0  0  0  0  0  0  0  0
  -55.0471   -3.7845   73.5372 C   0  0  0  0  0  0  0  0  0  0  0  0
 17 18  1  0  0  0
 18  9  1  0  0  0
  9 10  2  0  0  0
 10 11  1  0  0  0
 11  1  1  0  0  0
  1  2  1  0  0  0
  2  3  1  0  0  0
  3  4  1  0  0  0
  4  5  1  0  0  0
  5 19  1  0  0  0
 19 20  2  0  0  0
 20 21  1  0  0  0
 21 22  2  0  0  0
 22 23  1  0  0  0
 22 24  1  0  0  0
 24 27  1  0  0  0
 27 28  1  0  0  0
 24 25  2  0  0  0
 19 25  1  0  0  0
  5  6  1  0  0  0
  6  7  1  0  0  0
  7  8  1  0  0  0
  1  8  1  0  0  0
  4  8  1  0  0  0
 11 12  2  0  0  0
 12 13  1  0  0  0
 13 14  2  0  0  0
  9 14  1  0  0  0
 14 15  1  0  0  0
 23 26  1  0  0  0
 15 16  1  0  0  0
M  END
> <minimizedAffinity>
-7.44218

$$$$
ligand_53


 28 31  0  0  0  0  0  0  0  0999 V2000
  -55.2618    0.3744   71.5062 C   0  0  0  0  0  0  0  0  0  0  0  0
  -56.2564   -0.3269   72.2688 O   0  0  0  0  0  0  0  0  0  0  0  0
  -55.6721   -1.4861   72.8740 C   0  0  0  0  0  0  0  0  0  0  0  0
  -54.1736   -1.4745   72.5978 C   0  0  0  0  0  0  0  0  0  0  0  0
  -53.6523   -2.8168   72.1058 C   0  0  0  0  0  0  0  0  0  0  0  0
  -53.7765   -2.8094   70.6753 O   0  0  0  0  0  0  0  0  0  0  0  0
  -54.1229   -1.4939   70.2286 C   0  0  0  0  0  0  0  0  0  0  0  0
  -54.0533   -0.5449   71.4191 C   0  0  0  0  0  0  0  0  0  0  0  0
  -53.7246    3.8089   72.2434 C   0  0  0  0  0  0  0  0  0  0  0  0
  -53.9646    2.5345   71.7040 C   0  0  0  0  0  0  0  0  0  0  0  0
  -55.0076    1.7142   72.1681 C   0  0  0  0  0  0  0  0  0  0  0  0
  -55.8080    2.1952   73.2098 C   0  0  0  0  0  0  0  0  0  0  0  0
  -55.5800    3.4572   73.7617 C   0  0  0  0  0  0  0  0  0  0  0  0
  -54.5470    4.2643   73.2769 C   0  0  0  0  0  0  0  0  0  0  0  0
  -54.3792    5.4994   73.8394 O   0  0  0  0  0  0  0  0  0  0  0  0
  -55.0981    5.6594   74.4715 H   0  0  0  0  0  0  0  0  0  0  0  0
  -52.9662    5.4292   70.6544 C   0  0  0  0  0  0  0  0  0  0  0  0
  -52.6755    4.4507   71.6413 O   0  0  0  0  0  0  0  0  0  0  0  0
  -52.2065   -3.1017   72.4621 C   0  0  0  0  0  0  0  0  0  0  0  0
  -51.2188   -3.2627   71.4850 C   0  0  0  0  0  0  0  0  0  0  0  0
  -49.9013   -3.5552   71.8422 C   0  0  0  0  0  0  0  0  0  0  0  0
  -49.5503   -3.6984   73.1878 C   0  0  0  0  0  0  0  0  0  0  0  0
  -48.2471   -3.9898   73.4834 O   0  0  0  0  0  0  0  0  0  0  0  0
  -50.5147   -3.5454   74.1866 C   0  0  0  0  0  0  0  0  0  0  0  0
  -51.8331   -3.2412   73.8100 C   0  0  0  0  0  0  0  0  0  0  0  0
  -47.7518   -4.1003   72.6566 H   0  0  0  0  0  0  0  0  0  0  0  0
  -50.3622   -3.6543   75.5434 O   0  0  0  0  0  0  0  0  0  0  0  0
  -50.5006   -4.9399   76.1304 C   0  0  0  0  0  0  0  0  0  0  0  0
 17 18  1  0  0  0
 18  9  1  0  0  0
  9 10  2  0  0  0
 10 11  1  0  0  0
 11  1  1  0  0  0
  1  2  1  0  0  0
  2  3  1  0  0  0
  3  4  1  0  0  0
  4  5  1  0  0  0
  5 19  1  0  0  0
 19 20  2  0  0  0
 20 21  1  0  0  0
 21 22  2  0  0  0
 22 23  1  0  0  0
 22 24  1  0  0  0
 24 27  1  0  0  0
 27 28  1  0  0  0
 24 25  2  0  0  0
 19 25  1  0  0  0
  5  6  1  0  0  0
  6  7  1  0  0  0
  7  8  1  0  0  0
  1  8  1  0  0  0
  4  8  1  0  0  0
 11 12  2  0  0  0
 12 13  1  0  0  0
 13 14  2  0  0  0
  9 14  1  0  0  0
 14 15  1  0  0  0
 23 26  1  0  0  0
 15 16  1  0  0  0
M  END
> <minimizedAffinity>
-7.28029

$$$$
