ligand_49


 22 25  0  0  0  0  0  0  0  0999 V2000
  -53.1744   -4.4162   74.3758 C   0  0  0  0  0  0  0  0  0  0  0  0
  -53.6247   -3.7042   73.2693 C   0  0  0  0  0  0  0  0  0  0  0  0
  -52.7112   -3.1477   72.3870 C   0  0  0  0  0  0  0  0  0  0  0  0
  -51.3194   -3.2922   72.5920 C   0  0  0  0  0  0  0  0  0  0  0  0
  -50.8134   -4.0350   73.6973 C   0  0  0  0  0  0  0  0  0  0  0  0
  -51.7868   -4.5682   74.6187 C   0  0  0  0  0  0  0  0  0  0  0  0
  -49.3158   -4.2271   73.8087 C   0  0  0  0  0  0  0  0  0  0  0  0
  -48.6710   -5.0144   74.7873 C   0  0  0  0  0  0  0  0  0  0  0  0
  -47.2768   -5.1564   74.8709 C   0  0  0  0  0  0  0  0  0  0  0  0
  -46.4585   -4.5332   73.9487 C   0  0  0  0  0  0  0  0  0  0  0  0
  -47.0430   -3.7608   72.9596 C   0  0  0  0  0  0  0  0  0  0  0  0
  -48.4477   -3.6004   72.8900 C   0  0  0  0  0  0  0  0  0  0  0  0
  -48.9494   -2.6166   71.8755 C   0  0  0  0  0  0  0  0  0  0  0  0
  -50.4369   -2.6784   71.5044 C   0  0  0  0  0  0  0  0  0  0  0  0
  -50.8816   -1.3080   71.1120 N   0  0  0  0  0  0  0  0  0  0  0  0
  -50.2101   -0.7767   69.9296 C   0  0  0  0  0  0  0  0  0  0  0  0
  -52.3361   -1.1160   71.0270 C   0  0  0  0  0  0  0  0  0  0  0  0
  -53.1785   -2.3800   71.1820 C   0  0  0  0  0  0  0  0  0  0  0  0
  -55.3114   -4.1031   75.2803 C   0  0  0  0  0  0  0  0  0  0  0  0
  -54.1113   -4.8768   75.2697 O   0  0  0  0  0  0  0  0  0  0  0  0
  -51.2810   -5.2056   75.7233 O   0  0  0  0  0  0  0  0  0  0  0  0
  -51.4896   -6.5869   75.9589 C   0  0  0  0  0  0  0  0  0  0  0  0
 19 20  1  0  0  0
 20  1  1  0  0  0
  1  2  2  0  0  0
  2  3  1  0  0  0
  3  4  2  0  0  0
  4  5  1  0  0  0
  5  6  2  0  0  0
  1  6  1  0  0  0
  6 21  1  0  0  0
 21 22  1  0  0  0
  5  7  1  0  0  0
  7  8  2  0  0  0
  8  9  1  0  0  0
  9 10  2  0  0  0
 10 11  1  0  0  0
 11 12  2  0  0  0
  7 12  1  0  0  0
 12 13  1  0  0  0
 13 14  1  0  0  0
  4 14  1  0  0  0
 14 15  1  0  0  0
 15 16  1  0  0  0
 15 17  1  0  0  0
 17 18  1  0  0  0
  3 18  1  0  0  0
M  END
> <minimizedAffinity>
-7.71304

$$$$
ligand_49


 22 25  0  0  0  0  0  0  0  0999 V2000
  -53.1470   -4.5469   74.2651 C   0  0  0  0  0  0  0  0  0  0  0  0
  -52.0711   -4.7729   75.1169 C   0  0  0  0  0  0  0  0  0  0  0  0
  -50.7936   -4.3957   74.7318 C   0  0  0  0  0  0  0  0  0  0  0  0
  -50.5621   -3.7801   73.4799 C   0  0  0  0  0  0  0  0  0  0  0  0
  -51.6374   -3.5057   72.5867 C   0  0  0  0  0  0  0  0  0  0  0  0
  -52.9484   -3.9449   72.9979 C   0  0  0  0  0  0  0  0  0  0  0  0
  -51.3333   -2.7639   71.3023 C   0  0  0  0  0  0  0  0  0  0  0  0
  -52.2995   -2.3361   70.3661 C   0  0  0  0  0  0  0  0  0  0  0  0
  -51.9793   -1.6645   69.1755 C   0  0  0  0  0  0  0  0  0  0  0  0
  -50.6641   -1.3612   68.8812 C   0  0  0  0  0  0  0  0  0  0  0  0
  -49.6794   -1.7467   69.7747 C   0  0  0  0  0  0  0  0  0  0  0  0
  -50.0017   -2.4435   70.9639 C   0  0  0  0  0  0  0  0  0  0  0  0
  -48.8404   -2.9444   71.7698 C   0  0  0  0  0  0  0  0  0  0  0  0
  -49.1136   -3.3645   73.2200 C   0  0  0  0  0  0  0  0  0  0  0  0
  -48.1365   -4.4302   73.5934 N   0  0  0  0  0  0  0  0  0  0  0  0
  -46.7423   -3.9976   73.5724 C   0  0  0  0  0  0  0  0  0  0  0  0
  -48.4449   -5.1657   74.8277 C   0  0  0  0  0  0  0  0  0  0  0  0
  -49.6190   -4.6260   75.6412 C   0  0  0  0  0  0  0  0  0  0  0  0
  -55.0971   -4.1006   75.4820 C   0  0  0  0  0  0  0  0  0  0  0  0
  -54.3813   -5.0135   74.6493 O   0  0  0  0  0  0  0  0  0  0  0  0
  -53.9582   -3.7516   72.0894 O   0  0  0  0  0  0  0  0  0  0  0  0
  -54.9483   -2.7533   72.2628 C   0  0  0  0  0  0  0  0  0  0  0  0
 19 20  1  0  0  0
 20  1  1  0  0  0
  1  2  2  0  0  0
  2  3  1  0  0  0
  3  4  2  0  0  0
  4  5  1  0  0  0
  5  6  2  0  0  0
  1  6  1  0  0  0
  6 21  1  0  0  0
 21 22  1  0  0  0
  5  7  1  0  0  0
  7  8  2  0  0  0
  8  9  1  0  0  0
  9 10  2  0  0  0
 10 11  1  0  0  0
 11 12  2  0  0  0
  7 12  1  0  0  0
 12 13  1  0  0  0
 13 14  1  0  0  0
  4 14  1  0  0  0
 14 15  1  0  0  0
 15 16  1  0  0  0
 15 17  1  0  0  0
 17 18  1  0  0  0
  3 18  1  0  0  0
M  END
> <minimizedAffinity>
-7.63075

$$$$
ligand_49


 22 25  0  0  0  0  0  0  0  0999 V2000
  -50.0443   -4.7026   75.1305 C   0  0  0  0  0  0  0  0  0  0  0  0
  -51.3143   -5.1066   75.5280 C   0  0  0  0  0  0  0  0  0  0  0  0
  -52.4170   -4.7827   74.7523 C   0  0  0  0  0  0  0  0  0  0  0  0
  -52.2737   -4.0442   73.5549 C   0  0  0  0  0  0  0  0  0  0  0  0
  -50.9897   -3.6319   73.0958 C   0  0  0  0  0  0  0  0  0  0  0  0
  -49.8667   -3.9494   73.9436 C   0  0  0  0  0  0  0  0  0  0  0  0
  -50.8972   -2.9228   71.7613 C   0  0  0  0  0  0  0  0  0  0  0  0
  -49.6941   -2.5400   71.1294 C   0  0  0  0  0  0  0  0  0  0  0  0
  -49.6468   -1.8677   69.8978 C   0  0  0  0  0  0  0  0  0  0  0  0
  -50.8150   -1.5726   69.2221 C   0  0  0  0  0  0  0  0  0  0  0  0
  -52.0214   -1.9400   69.7931 C   0  0  0  0  0  0  0  0  0  0  0  0
  -52.0687   -2.5978   71.0455 C   0  0  0  0  0  0  0  0  0  0  0  0
  -53.4338   -2.8015   71.6321 C   0  0  0  0  0  0  0  0  0  0  0  0
  -53.5692   -3.8162   72.7750 C   0  0  0  0  0  0  0  0  0  0  0  0
  -54.6984   -3.3881   73.6533 N   0  0  0  0  0  0  0  0  0  0  0  0
  -55.9996   -3.3754   72.9915 C   0  0  0  0  0  0  0  0  0  0  0  0
  -54.7736   -4.0600   74.9581 C   0  0  0  0  0  0  0  0  0  0  0  0
  -53.7969   -5.2158   75.1621 C   0  0  0  0  0  0  0  0  0  0  0  0
  -48.8119   -6.3636   76.2281 C   0  0  0  0  0  0  0  0  0  0  0  0
  -48.9909   -4.9704   75.9716 O   0  0  0  0  0  0  0  0  0  0  0  0
  -48.6491   -3.4700   73.5311 O   0  0  0  0  0  0  0  0  0  0  0  0
  -47.5675   -4.3289   73.2157 C   0  0  0  0  0  0  0  0  0  0  0  0
 19 20  1  0  0  0
 20  1  1  0  0  0
  1  2  2  0  0  0
  2  3  1  0  0  0
  3  4  2  0  0  0
  4  5  1  0  0  0
  5  6  2  0  0  0
  1  6  1  0  0  0
  6 21  1  0  0  0
 21 22  1  0  0  0
  5  7  1  0  0  0
  7  8  2  0  0  0
  8  9  1  0  0  0
  9 10  2  0  0  0
 10 11  1  0  0  0
 11 12  2  0  0  0
  7 12  1  0  0  0
 12 13  1  0  0  0
 13 14  1  0  0  0
  4 14  1  0  0  0
 14 15  1  0  0  0
 15 16  1  0  0  0
 15 17  1  0  0  0
 17 18  1  0  0  0
  3 18  1  0  0  0
M  END
> <minimizedAffinity>
-7.41943

$$$$
ligand_49


 22 25  0  0  0  0  0  0  0  0999 V2000
  -49.6509   -3.7693   73.7387 C   0  0  0  0  0  0  0  0  0  0  0  0
  -49.1713   -3.2224   72.5534 C   0  0  0  0  0  0  0  0  0  0  0  0
  -50.0340   -2.5427   71.7070 C   0  0  0  0  0  0  0  0  0  0  0  0
  -51.4028   -2.3930   72.0289 C   0  0  0  0  0  0  0  0  0  0  0  0
  -51.9323   -2.9142   73.2444 C   0  0  0  0  0  0  0  0  0  0  0  0
  -51.0196   -3.6498   74.0851 C   0  0  0  0  0  0  0  0  0  0  0  0
  -53.3855   -2.6417   73.5704 C   0  0  0  0  0  0  0  0  0  0  0  0
  -54.0276   -3.0065   74.7737 C   0  0  0  0  0  0  0  0  0  0  0  0
  -55.3833   -2.7522   75.0353 C   0  0  0  0  0  0  0  0  0  0  0  0
  -56.1574   -2.0864   74.1048 C   0  0  0  0  0  0  0  0  0  0  0  0
  -55.5707   -1.6945   72.9137 C   0  0  0  0  0  0  0  0  0  0  0  0
  -54.2094   -1.9713   72.6420 C   0  0  0  0  0  0  0  0  0  0  0  0
  -53.7324   -1.6391   71.2596 C   0  0  0  0  0  0  0  0  0  0  0  0
  -52.2167   -1.5675   71.0316 C   0  0  0  0  0  0  0  0  0  0  0  0
  -51.9356   -1.9426   69.6139 N   0  0  0  0  0  0  0  0  0  0  0  0
  -52.5179   -1.0364   68.6285 C   0  0  0  0  0  0  0  0  0  0  0  0
  -50.5282   -2.2300   69.3036 C   0  0  0  0  0  0  0  0  0  0  0  0
  -49.5330   -1.9393   70.4245 C   0  0  0  0  0  0  0  0  0  0  0  0
  -47.5364   -4.7681   73.8562 C   0  0  0  0  0  0  0  0  0  0  0  0
  -48.7814   -4.5076   74.5052 O   0  0  0  0  0  0  0  0  0  0  0  0
  -51.5647   -4.2191   75.2081 O   0  0  0  0  0  0  0  0  0  0  0  0
  -51.7911   -5.6137   75.3131 C   0  0  0  0  0  0  0  0  0  0  0  0
 19 20  1  0  0  0
 20  1  1  0  0  0
  1  2  2  0  0  0
  2  3  1  0  0  0
  3  4  2  0  0  0
  4  5  1  0  0  0
  5  6  2  0  0  0
  1  6  1  0  0  0
  6 21  1  0  0  0
 21 22  1  0  0  0
  5  7  1  0  0  0
  7  8  2  0  0  0
  8  9  1  0  0  0
  9 10  2  0  0  0
 10 11  1  0  0  0
 11 12  2  0  0  0
  7 12  1  0  0  0
 12 13  1  0  0  0
 13 14  1  0  0  0
  4 14  1  0  0  0
 14 15  1  0  0  0
 15 16  1  0  0  0
 15 17  1  0  0  0
 17 18  1  0  0  0
  3 18  1  0  0  0
M  END
> <minimizedAffinity>
-7.18777

$$$$
ligand_49


 22 25  0  0  0  0  0  0  0  0999 V2000
  -50.9424   -4.0490   74.0860 C   0  0  0  0  0  0  0  0  0  0  0  0
  -52.1566   -3.9187   74.7515 C   0  0  0  0  0  0  0  0  0  0  0  0
  -53.2612   -3.4148   74.0819 C   0  0  0  0  0  0  0  0  0  0  0  0
  -53.1764   -3.0286   72.7242 C   0  0  0  0  0  0  0  0  0  0  0  0
  -51.9602   -3.1687   71.9957 C   0  0  0  0  0  0  0  0  0  0  0  0
  -50.8190   -3.6585   72.7296 C   0  0  0  0  0  0  0  0  0  0  0  0
  -51.9609   -2.8209   70.5222 C   0  0  0  0  0  0  0  0  0  0  0  0
  -50.8663   -2.9969   69.6481 C   0  0  0  0  0  0  0  0  0  0  0  0
  -50.8974   -2.6469   68.2889 C   0  0  0  0  0  0  0  0  0  0  0  0
  -52.0496   -2.1273   67.7314 C   0  0  0  0  0  0  0  0  0  0  0  0
  -53.1562   -1.9485   68.5438 C   0  0  0  0  0  0  0  0  0  0  0  0
  -53.1164   -2.2809   69.9192 C   0  0  0  0  0  0  0  0  0  0  0  0
  -54.3206   -1.8957   70.7256 C   0  0  0  0  0  0  0  0  0  0  0  0
  -54.4893   -2.5500   72.1031 C   0  0  0  0  0  0  0  0  0  0  0  0
  -55.2287   -1.6011   72.9878 N   0  0  0  0  0  0  0  0  0  0  0  0
  -56.5830   -1.2947   72.5370 C   0  0  0  0  0  0  0  0  0  0  0  0
  -55.2076   -1.9265   74.4207 C   0  0  0  0  0  0  0  0  0  0  0  0
  -54.5836   -3.2723   74.7824 C   0  0  0  0  0  0  0  0  0  0  0  0
  -50.0707   -4.4525   76.2215 C   0  0  0  0  0  0  0  0  0  0  0  0
  -49.8534   -4.4714   74.8103 O   0  0  0  0  0  0  0  0  0  0  0  0
  -49.6354   -3.7051   72.0372 O   0  0  0  0  0  0  0  0  0  0  0  0
  -48.5809   -2.7915   72.2832 C   0  0  0  0  0  0  0  0  0  0  0  0
 19 20  1  0  0  0
 20  1  1  0  0  0
  1  2  2  0  0  0
  2  3  1  0  0  0
  3  4  2  0  0  0
  4  5  1  0  0  0
  5  6  2  0  0  0
  1  6  1  0  0  0
  6 21  1  0  0  0
 21 22  1  0  0  0
  5  7  1  0  0  0
  7  8  2  0  0  0
  8  9  1  0  0  0
  9 10  2  0  0  0
 10 11  1  0  0  0
 11 12  2  0  0  0
  7 12  1  0  0  0
 12 13  1  0  0  0
 13 14  1  0  0  0
  4 14  1  0  0  0
 14 15  1  0  0  0
 15 16  1  0  0  0
 15 17  1  0  0  0
 17 18  1  0  0  0
  3 18  1  0  0  0
M  END
> <minimizedAffinity>
-7.17233

$$$$
