ligand_31


 27 31  0  0  0  0  0  0  0  0999 V2000
  -52.2151   -2.7750   71.9910 C   0  0  0  0  0  0  0  0  0  0  0  0
  -52.4901   -1.9183   70.6987 C   0  0  0  0  0  0  0  0  0  0  0  0
  -53.1543   -2.8071   69.6370 C   0  0  0  0  0  0  0  0  0  0  0  0
  -53.5566   -2.2064   68.2944 C   0  0  0  0  0  0  0  0  0  0  0  0
  -53.2680   -0.7342   68.0685 C   0  0  0  0  0  0  0  0  0  0  0  0
  -54.1177    0.1584   68.9618 C   0  0  0  0  0  0  0  0  0  0  0  0
  -53.4659    0.4960   70.2267 N   0  0  0  0  0  0  0  0  0  0  0  0
  -53.1817   -0.6176   71.1321 C   0  0  0  0  0  0  0  0  0  0  0  0
  -54.4756   -0.8419   71.8966 C   0  0  0  0  0  0  0  0  0  0  0  0
  -55.0274    0.5745   72.0860 C   0  0  0  0  0  0  0  0  0  0  0  0
  -54.3303    1.4277   71.0053 C   0  0  0  0  0  0  0  0  0  0  0  0
  -54.2059   -1.5999   73.2094 C   0  0  0  0  0  0  0  0  0  0  0  0
  -53.4304   -2.8884   72.9536 C   0  0  0  0  0  0  0  0  0  0  0  0
  -54.4391   -3.7894   72.4871 O   0  0  0  0  0  0  0  0  0  0  0  0
  -55.6283   -3.4642   73.0947 C   0  0  0  0  0  0  0  0  0  0  0  0
  -56.6306   -4.1528   73.0556 O   0  0  0  0  0  0  0  0  0  0  0  0
  -55.5017   -2.1365   73.8102 C   0  0  0  0  0  0  0  0  0  0  0  0
  -55.4251   -2.3393   75.3181 C   0  0  0  0  0  0  0  0  0  0  0  0
  -53.5174    2.6267   71.5602 C   0  0  0  0  0  0  0  0  0  0  0  0
  -54.1447    3.4083   72.7005 C   0  0  0  0  0  0  0  0  0  0  0  0
  -53.7999    4.8561   72.4241 C   0  0  0  0  0  0  0  0  0  0  0  0
  -55.0335    5.7464   72.5007 C   0  0  0  0  0  0  0  0  0  0  0  0
  -53.2685    4.8353   71.0196 C   0  0  0  0  0  0  0  0  0  0  0  0
  -52.9051    5.8158   70.3901 O   0  0  0  0  0  0  0  0  0  0  0  0
  -53.2836    3.5742   70.5130 O   0  0  0  0  0  0  0  0  0  0  0  0
  -49.8847   -1.7527   71.8397 C   0  0  0  0  0  0  0  0  0  0  0  0
  -51.0056   -2.1874   72.7733 C   0  0  0  0  0  0  0  0  0  0  0  0
 26 27  1  0  0  0
  1  2  1  0  0  0
  2  3  1  0  0  0
  3  4  1  0  0  0
  4  5  1  0  0  0
  5  6  1  0  0  0
  6  7  1  0  0  0
  7  8  1  0  0  0
  2  8  1  0  0  0
  8  9  1  0  0  0
  9 10  1  0  0  0
 10 11  1  0  0  0
  7 11  1  0  0  0
 19 20  1  0  0  0
 20 21  1  0  0  0
 21 23  1  0  0  0
 23 24  2  0  0  0
 23 25  1  0  0  0
 19 25  1  0  0  0
  9 12  1  0  0  0
 12 13  1  0  0  0
  1 13  1  0  0  0
 13 14  1  0  0  0
 14 15  1  0  0  0
 15 16  2  0  0  0
 15 17  1  0  0  0
 12 17  1  0  0  0
 17 18  1  0  0  0
 11 19  1  0  0  0
  1 27  1  0  0  0
 21 22  1  0  0  0
M  END
> <minimizedAffinity>
-8.14714

$$$$
ligand_31


 27 31  0  0  0  0  0  0  0  0999 V2000
  -55.9621   -1.3747   68.8086 C   0  0  0  0  0  0  0  0  0  0  0  0
  -54.7204   -2.3243   68.6178 C   0  0  0  0  0  0  0  0  0  0  0  0
  -54.7048   -2.8494   67.1748 C   0  0  0  0  0  0  0  0  0  0  0  0
  -53.5776   -3.7696   66.7189 C   0  0  0  0  0  0  0  0  0  0  0  0
  -52.5119   -4.1325   67.7359 C   0  0  0  0  0  0  0  0  0  0  0  0
  -51.6601   -2.9323   68.1242 C   0  0  0  0  0  0  0  0  0  0  0  0
  -52.1652   -2.2229   69.2992 N   0  0  0  0  0  0  0  0  0  0  0  0
  -53.4832   -1.6012   69.1697 C   0  0  0  0  0  0  0  0  0  0  0  0
  -53.2201   -0.2569   68.5121 C   0  0  0  0  0  0  0  0  0  0  0  0
  -51.8868    0.1840   69.1239 C   0  0  0  0  0  0  0  0  0  0  0  0
  -51.2371   -1.1118   69.6537 C   0  0  0  0  0  0  0  0  0  0  0  0
  -54.3890    0.7115   68.7701 C   0  0  0  0  0  0  0  0  0  0  0  0
  -55.7204    0.0926   68.3561 C   0  0  0  0  0  0  0  0  0  0  0  0
  -55.7277    0.2546   66.9346 O   0  0  0  0  0  0  0  0  0  0  0  0
  -55.0412    1.4040   66.6237 C   0  0  0  0  0  0  0  0  0  0  0  0
  -55.0285    1.9199   65.5219 O   0  0  0  0  0  0  0  0  0  0  0  0
  -54.3136    1.9227   67.8452 C   0  0  0  0  0  0  0  0  0  0  0  0
  -55.0122    3.1532   68.4097 C   0  0  0  0  0  0  0  0  0  0  0  0
  -50.9228   -1.0971   71.1727 C   0  0  0  0  0  0  0  0  0  0  0  0
  -49.5290   -1.5338   71.5863 C   0  0  0  0  0  0  0  0  0  0  0  0
  -49.7251   -2.3265   72.8610 C   0  0  0  0  0  0  0  0  0  0  0  0
  -49.0098   -3.6698   72.7965 C   0  0  0  0  0  0  0  0  0  0  0  0
  -51.2105   -2.5387   72.9251 C   0  0  0  0  0  0  0  0  0  0  0  0
  -51.7942   -3.1712   73.7905 O   0  0  0  0  0  0  0  0  0  0  0  0
  -51.8296   -1.9664   71.8592 O   0  0  0  0  0  0  0  0  0  0  0  0
  -56.6301   -2.7875   70.8226 C   0  0  0  0  0  0  0  0  0  0  0  0
  -56.4105   -1.3755   70.2982 C   0  0  0  0  0  0  0  0  0  0  0  0
 26 27  1  0  0  0
  1  2  1  0  0  0
  2  3  1  0  0  0
  3  4  1  0  0  0
  4  5  1  0  0  0
  5  6  1  0  0  0
  6  7  1  0  0  0
  7  8  1  0  0  0
  2  8  1  0  0  0
  8  9  1  0  0  0
  9 10  1  0  0  0
 10 11  1  0  0  0
  7 11  1  0  0  0
 19 20  1  0  0  0
 20 21  1  0  0  0
 21 23  1  0  0  0
 23 24  2  0  0  0
 23 25  1  0  0  0
 19 25  1  0  0  0
  9 12  1  0  0  0
 12 13  1  0  0  0
  1 13  1  0  0  0
 13 14  1  0  0  0
 14 15  1  0  0  0
 15 16  2  0  0  0
 15 17  1  0  0  0
 12 17  1  0  0  0
 17 18  1  0  0  0
 11 19  1  0  0  0
  1 27  1  0  0  0
 21 22  1  0  0  0
M  END
> <minimizedAffinity>
-8.06581

$$$$
ligand_31


 27 31  0  0  0  0  0  0  0  0999 V2000
  -53.9120    0.0729   70.2645 C   0  0  0  0  0  0  0  0  0  0  0  0
  -54.4177   -0.5953   71.5978 C   0  0  0  0  0  0  0  0  0  0  0  0
  -55.9029   -0.9562   71.4485 C   0  0  0  0  0  0  0  0  0  0  0  0
  -56.6297   -1.6504   72.5953 C   0  0  0  0  0  0  0  0  0  0  0  0
  -55.8350   -1.9485   73.8528 C   0  0  0  0  0  0  0  0  0  0  0  0
  -54.7623   -3.0018   73.6148 C   0  0  0  0  0  0  0  0  0  0  0  0
  -53.4662   -2.4321   73.2482 N   0  0  0  0  0  0  0  0  0  0  0  0
  -53.4126   -1.6880   71.9897 C   0  0  0  0  0  0  0  0  0  0  0  0
  -53.2141   -2.7455   70.9167 C   0  0  0  0  0  0  0  0  0  0  0  0
  -52.2968   -3.7699   71.5917 C   0  0  0  0  0  0  0  0  0  0  0  0
  -52.4595   -3.5220   73.1062 C   0  0  0  0  0  0  0  0  0  0  0  0
  -52.6327   -2.1175   69.6368 C   0  0  0  0  0  0  0  0  0  0  0  0
  -53.4791   -0.9387   69.1665 C   0  0  0  0  0  0  0  0  0  0  0  0
  -54.5836   -1.5702   68.5123 O   0  0  0  0  0  0  0  0  0  0  0  0
  -54.1444   -2.7471   67.9544 C   0  0  0  0  0  0  0  0  0  0  0  0
  -54.7906   -3.4206   67.1739 O   0  0  0  0  0  0  0  0  0  0  0  0
  -52.7529   -3.0724   68.4527 C   0  0  0  0  0  0  0  0  0  0  0  0
  -51.7152   -2.8156   67.3672 C   0  0  0  0  0  0  0  0  0  0  0  0
  -51.1400   -3.1762   73.8450 C   0  0  0  0  0  0  0  0  0  0  0  0
  -49.9509   -2.7996   72.9796 C   0  0  0  0  0  0  0  0  0  0  0  0
  -48.7532   -3.4303   73.6574 C   0  0  0  0  0  0  0  0  0  0  0  0
  -47.9104   -4.2268   72.6698 C   0  0  0  0  0  0  0  0  0  0  0  0
  -49.3624   -4.3534   74.6734 C   0  0  0  0  0  0  0  0  0  0  0  0
  -48.7371   -5.0895   75.4196 O   0  0  0  0  0  0  0  0  0  0  0  0
  -50.7196   -4.2984   74.6280 O   0  0  0  0  0  0  0  0  0  0  0  0
  -53.2016    2.4124   70.9861 C   0  0  0  0  0  0  0  0  0  0  0  0
  -52.7230    1.0301   70.5650 C   0  0  0  0  0  0  0  0  0  0  0  0
 26 27  1  0  0  0
  1  2  1  0  0  0
  2  3  1  0  0  0
  3  4  1  0  0  0
  4  5  1  0  0  0
  5  6  1  0  0  0
  6  7  1  0  0  0
  7  8  1  0  0  0
  2  8  1  0  0  0
  8  9  1  0  0  0
  9 10  1  0  0  0
 10 11  1  0  0  0
  7 11  1  0  0  0
 19 20  1  0  0  0
 20 21  1  0  0  0
 21 23  1  0  0  0
 23 24  2  0  0  0
 23 25  1  0  0  0
 19 25  1  0  0  0
  9 12  1  0  0  0
 12 13  1  0  0  0
  1 13  1  0  0  0
 13 14  1  0  0  0
 14 15  1  0  0  0
 15 16  2  0  0  0
 15 17  1  0  0  0
 12 17  1  0  0  0
 17 18  1  0  0  0
 11 19  1  0  0  0
  1 27  1  0  0  0
 21 22  1  0  0  0
M  END
> <minimizedAffinity>
-7.77285

$$$$
ligand_31


 27 31  0  0  0  0  0  0  0  0999 V2000
  -50.3942   -1.1155   68.4882 C   0  0  0  0  0  0  0  0  0  0  0  0
  -51.8207   -1.6056   68.0357 C   0  0  0  0  0  0  0  0  0  0  0  0
  -51.7049   -3.0205   67.4499 C   0  0  0  0  0  0  0  0  0  0  0  0
  -52.9582   -3.7412   66.9649 C   0  0  0  0  0  0  0  0  0  0  0  0
  -54.2806   -3.0066   67.0812 C   0  0  0  0  0  0  0  0  0  0  0  0
  -54.6990   -2.8090   68.5312 C   0  0  0  0  0  0  0  0  0  0  0  0
  -54.2453   -1.5376   69.0940 N   0  0  0  0  0  0  0  0  0  0  0  0
  -52.7981   -1.3463   69.1912 C   0  0  0  0  0  0  0  0  0  0  0  0
  -52.3988   -2.0260   70.4903 C   0  0  0  0  0  0  0  0  0  0  0  0
  -53.5795   -1.7354   71.4219 C   0  0  0  0  0  0  0  0  0  0  0  0
  -54.7578   -1.3921   70.4860 C   0  0  0  0  0  0  0  0  0  0  0  0
  -51.0462   -1.4873   70.9912 C   0  0  0  0  0  0  0  0  0  0  0  0
  -49.9763   -1.5889   69.9086 C   0  0  0  0  0  0  0  0  0  0  0  0
  -49.5939   -2.9667   69.9558 O   0  0  0  0  0  0  0  0  0  0  0  0
  -49.7257   -3.4112   71.2498 C   0  0  0  0  0  0  0  0  0  0  0  0
  -49.3035   -4.4774   71.6563 O   0  0  0  0  0  0  0  0  0  0  0  0
  -50.4663   -2.3852   72.0801 C   0  0  0  0  0  0  0  0  0  0  0  0
  -49.5114   -1.6541   73.0152 C   0  0  0  0  0  0  0  0  0  0  0  0
  -55.3749    0.0117   70.7202 C   0  0  0  0  0  0  0  0  0  0  0  0
  -55.6097    0.8688   69.4894 C   0  0  0  0  0  0  0  0  0  0  0  0
  -55.2600    2.2783   69.9167 C   0  0  0  0  0  0  0  0  0  0  0  0
  -54.3062    2.9386   68.9295 C   0  0  0  0  0  0  0  0  0  0  0  0
  -54.5785    2.0915   71.2419 C   0  0  0  0  0  0  0  0  0  0  0  0
  -54.1017    2.9870   71.9204 O   0  0  0  0  0  0  0  0  0  0  0  0
  -54.5194    0.7757   71.5767 O   0  0  0  0  0  0  0  0  0  0  0  0
  -49.1265    0.9191   67.6212 C   0  0  0  0  0  0  0  0  0  0  0  0
  -50.3210    0.4374   68.4325 C   0  0  0  0  0  0  0  0  0  0  0  0
 26 27  1  0  0  0
  1  2  1  0  0  0
  2  3  1  0  0  0
  3  4  1  0  0  0
  4  5  1  0  0  0
  5  6  1  0  0  0
  6  7  1  0  0  0
  7  8  1  0  0  0
  2  8  1  0  0  0
  8  9  1  0  0  0
  9 10  1  0  0  0
 10 11  1  0  0  0
  7 11  1  0  0  0
 19 20  1  0  0  0
 20 21  1  0  0  0
 21 23  1  0  0  0
 23 24  2  0  0  0
 23 25  1  0  0  0
 19 25  1  0  0  0
  9 12  1  0  0  0
 12 13  1  0  0  0
  1 13  1  0  0  0
 13 14  1  0  0  0
 14 15  1  0  0  0
 15 16  2  0  0  0
 15 17  1  0  0  0
 12 17  1  0  0  0
 17 18  1  0  0  0
 11 19  1  0  0  0
  1 27  1  0  0  0
 21 22  1  0  0  0
M  END
> <minimizedAffinity>
-7.70917

$$$$
ligand_31


 27 31  0  0  0  0  0  0  0  0999 V2000
  -55.5157   -1.1837   70.5351 C   0  0  0  0  0  0  0  0  0  0  0  0
  -54.7859   -2.0606   69.4497 C   0  0  0  0  0  0  0  0  0  0  0  0
  -55.5491   -1.9559   68.1211 C   0  0  0  0  0  0  0  0  0  0  0  0
  -55.0269   -2.6905   66.8911 C   0  0  0  0  0  0  0  0  0  0  0  0
  -53.7593   -3.5093   67.0471 C   0  0  0  0  0  0  0  0  0  0  0  0
  -52.5409   -2.6335   67.3025 C   0  0  0  0  0  0  0  0  0  0  0  0
  -52.2673   -2.4267   68.7242 N   0  0  0  0  0  0  0  0  0  0  0  0
  -53.2906   -1.7135   69.4888 C   0  0  0  0  0  0  0  0  0  0  0  0
  -53.0014   -0.2405   69.2528 C   0  0  0  0  0  0  0  0  0  0  0  0
  -51.4715   -0.1817   69.2017 C   0  0  0  0  0  0  0  0  0  0  0  0
  -51.0220   -1.6239   68.8855 C   0  0  0  0  0  0  0  0  0  0  0  0
  -53.6340    0.6211   70.3609 C   0  0  0  0  0  0  0  0  0  0  0  0
  -55.1217    0.3198   70.5130 C   0  0  0  0  0  0  0  0  0  0  0  0
  -55.7138    1.0437   69.4303 O   0  0  0  0  0  0  0  0  0  0  0  0
  -54.9596    2.1683   69.1943 C   0  0  0  0  0  0  0  0  0  0  0  0
  -55.3000    3.0839   68.4689 O   0  0  0  0  0  0  0  0  0  0  0  0
  -53.6590    2.0944   69.9645 C   0  0  0  0  0  0  0  0  0  0  0  0
  -53.6839    3.0373   71.1609 C   0  0  0  0  0  0  0  0  0  0  0  0
  -50.0770   -2.2481   69.9455 C   0  0  0  0  0  0  0  0  0  0  0  0
  -50.5259   -3.5539   70.5765 C   0  0  0  0  0  0  0  0  0  0  0  0
  -50.1177   -3.4511   72.0306 C   0  0  0  0  0  0  0  0  0  0  0  0
  -51.2746   -3.7970   72.9591 C   0  0  0  0  0  0  0  0  0  0  0  0
  -49.7421   -2.0063   72.1953 C   0  0  0  0  0  0  0  0  0  0  0  0
  -49.3840   -1.4870   73.2401 O   0  0  0  0  0  0  0  0  0  0  0  0
  -49.8944   -1.3285   71.0272 O   0  0  0  0  0  0  0  0  0  0  0  0
  -55.5940   -0.7547   73.0467 C   0  0  0  0  0  0  0  0  0  0  0  0
  -55.2417   -1.7558   71.9556 C   0  0  0  0  0  0  0  0  0  0  0  0
 26 27  1  0  0  0
  1  2  1  0  0  0
  2  3  1  0  0  0
  3  4  1  0  0  0
  4  5  1  0  0  0
  5  6  1  0  0  0
  6  7  1  0  0  0
  7  8  1  0  0  0
  2  8  1  0  0  0
  8  9  1  0  0  0
  9 10  1  0  0  0
 10 11  1  0  0  0
  7 11  1  0  0  0
 19 20  1  0  0  0
 20 21  1  0  0  0
 21 23  1  0  0  0
 23 24  2  0  0  0
 23 25  1  0  0  0
 19 25  1  0  0  0
  9 12  1  0  0  0
 12 13  1  0  0  0
  1 13  1  0  0  0
 13 14  1  0  0  0
 14 15  1  0  0  0
 15 16  2  0  0  0
 15 17  1  0  0  0
 12 17  1  0  0  0
 17 18  1  0  0  0
 11 19  1  0  0  0
  1 27  1  0  0  0
 21 22  1  0  0  0
M  END
> <minimizedAffinity>
-7.65521

$$$$
