ligand_40


 27 30  0  0  0  0  0  0  0  0999 V2000
  -49.7255    0.7237   68.1217 C   0  0  0  0  0  0  0  0  0  0  0  0
  -50.6204   -0.4190   68.5437 C   0  0  0  0  0  0  0  0  0  0  0  0
  -50.0377   -1.5857   68.8502 C   0  0  0  0  0  0  0  0  0  0  0  0
  -50.8224   -2.7621   69.2215 C   0  0  0  0  0  0  0  0  0  0  0  0
  -50.2671   -3.7064   69.7857 O   0  0  0  0  0  0  0  0  0  0  0  0
  -52.2954   -2.8226   68.8625 C   0  0  0  0  0  0  0  0  0  0  0  0
  -52.9075   -3.6670   69.8520 O   0  0  0  0  0  0  0  0  0  0  0  0
  -53.0676   -1.4733   68.6971 C   0  0  0  0  0  0  0  0  0  0  0  0
  -53.8300   -1.5869   67.3335 C   0  0  0  0  0  0  0  0  0  0  0  0
  -52.1316   -0.1784   68.5414 C   0  0  0  0  0  0  0  0  0  0  0  0
  -52.5843    1.0617   69.4017 C   0  0  0  0  0  0  0  0  0  0  0  0
  -53.2715    0.8143   70.7577 C   0  0  0  0  0  0  0  0  0  0  0  0
  -53.6521    1.7542   71.4532 O   0  0  0  0  0  0  0  0  0  0  0  0
  -53.5029   -0.6389   71.1559 C   0  0  0  0  0  0  0  0  0  0  0  0
  -52.0794   -1.0607   71.6020 C   0  0  0  0  0  0  0  0  0  0  0  0
  -54.4252   -0.8296   72.3973 C   0  0  0  0  0  0  0  0  0  0  0  0
  -54.2335   -2.2604   72.8800 C   0  0  0  0  0  0  0  0  0  0  0  0
  -53.4273   -2.6497   73.7026 O   0  0  0  0  0  0  0  0  0  0  0  0
  -55.0845   -3.0724   72.1801 O   0  0  0  0  0  0  0  0  0  0  0  0
  -55.9573   -2.2341   71.4019 C   0  0  0  0  0  0  0  0  0  0  0  0
  -55.9261   -0.9263   72.1683 C   0  0  0  0  0  0  0  0  0  0  0  0
  -56.6317    0.2685   71.5642 C   0  0  0  0  0  0  0  0  0  0  0  0
  -55.4149   -2.1024   69.9705 C   0  0  0  0  0  0  0  0  0  0  0  0
  -55.3223   -3.3772   69.3598 O   0  0  0  0  0  0  0  0  0  0  0  0
  -54.1313   -1.2083   69.8265 C   0  0  0  0  0  0  0  0  0  0  0  0
  -52.2259   -4.3267   70.1091 H   0  0  0  0  0  0  0  0  0  0  0  0
  -54.5382   -3.8152   69.7587 H   0  0  0  0  0  0  0  0  0  0  0  0
  2  3  2  0  0  0
  3  4  1  0  0  0
  4  6  1  0  0  0
  6  8  1  0  0  0
  8 10  1  0  0  0
  2 10  1  0  0  0
 10 11  1  0  0  0
 11 12  1  0  0  0
 12 14  1  0  0  0
 14 16  1  0  0  0
 16 17  1  0  0  0
 17 19  1  0  0  0
 19 20  1  0  0  0
 20 21  1  0  0  0
 16 21  1  0  0  0
 20 23  1  0  0  0
 23 25  1  0  0  0
 14 25  1  0  0  0
  8 25  1  0  0  0
  1  2  1  0  0  0
  4  5  2  0  0  0
  6  7  1  0  0  0
  8  9  1  0  0  0
 12 13  2  0  0  0
 14 15  1  0  0  0
 17 18  2  0  0  0
 23 24  1  0  0  0
 21 22  1  0  0  0
  7 26  1  0  0  0
 24 27  1  0  0  0
M  END
> <minimizedAffinity>
-7.57785

$$$$
ligand_40


 27 30  0  0  0  0  0  0  0  0999 V2000
  -54.7898   -2.4060   74.9388 C   0  0  0  0  0  0  0  0  0  0  0  0
  -54.9314   -1.7442   73.5872 C   0  0  0  0  0  0  0  0  0  0  0  0
  -55.1388   -0.4209   73.5607 C   0  0  0  0  0  0  0  0  0  0  0  0
  -55.3370    0.3005   72.3046 C   0  0  0  0  0  0  0  0  0  0  0  0
  -55.2170    1.5268   72.2857 O   0  0  0  0  0  0  0  0  0  0  0  0
  -55.7353   -0.4654   71.0568 C   0  0  0  0  0  0  0  0  0  0  0  0
  -55.2273    0.2962   69.9484 O   0  0  0  0  0  0  0  0  0  0  0  0
  -55.3283   -1.9716   70.9577 C   0  0  0  0  0  0  0  0  0  0  0  0
  -56.6319   -2.7356   70.5450 C   0  0  0  0  0  0  0  0  0  0  0  0
  -54.8796   -2.6390   72.3471 C   0  0  0  0  0  0  0  0  0  0  0  0
  -53.5842   -3.5314   72.2544 C   0  0  0  0  0  0  0  0  0  0  0  0
  -52.4908   -3.1508   71.2387 C   0  0  0  0  0  0  0  0  0  0  0  0
  -51.4710   -3.8285   71.1255 O   0  0  0  0  0  0  0  0  0  0  0  0
  -52.7658   -1.9401   70.3542 C   0  0  0  0  0  0  0  0  0  0  0  0
  -52.4984   -0.7762   71.3429 C   0  0  0  0  0  0  0  0  0  0  0  0
  -51.7590   -1.7563   69.1792 C   0  0  0  0  0  0  0  0  0  0  0  0
  -51.9343   -0.3364   68.6594 C   0  0  0  0  0  0  0  0  0  0  0  0
  -51.3337    0.6539   69.0293 O   0  0  0  0  0  0  0  0  0  0  0  0
  -52.9435   -0.3341   67.7347 O   0  0  0  0  0  0  0  0  0  0  0  0
  -53.3125   -1.7008   67.4779 C   0  0  0  0  0  0  0  0  0  0  0  0
  -52.0567   -2.4580   67.8626 C   0  0  0  0  0  0  0  0  0  0  0  0
  -52.1096   -3.9705   67.8590 C   0  0  0  0  0  0  0  0  0  0  0  0
  -54.5286   -2.0830   68.3356 C   0  0  0  0  0  0  0  0  0  0  0  0
  -55.6257   -1.2375   68.0387 O   0  0  0  0  0  0  0  0  0  0  0  0
  -54.2306   -2.2620   69.8676 C   0  0  0  0  0  0  0  0  0  0  0  0
  -55.2574    1.2383   70.2263 H   0  0  0  0  0  0  0  0  0  0  0  0
  -55.4290   -0.3743   68.4652 H   0  0  0  0  0  0  0  0  0  0  0  0
  2  3  2  0  0  0
  3  4  1  0  0  0
  4  6  1  0  0  0
  6  8  1  0  0  0
  8 10  1  0  0  0
  2 10  1  0  0  0
 10 11  1  0  0  0
 11 12  1  0  0  0
 12 14  1  0  0  0
 14 16  1  0  0  0
 16 17  1  0  0  0
 17 19  1  0  0  0
 19 20  1  0  0  0
 20 21  1  0  0  0
 16 21  1  0  0  0
 20 23  1  0  0  0
 23 25  1  0  0  0
 14 25  1  0  0  0
  8 25  1  0  0  0
  1  2  1  0  0  0
  4  5  2  0  0  0
  6  7  1  0  0  0
  8  9  1  0  0  0
 12 13  2  0  0  0
 14 15  1  0  0  0
 17 18  2  0  0  0
 23 24  1  0  0  0
 21 22  1  0  0  0
  7 26  1  0  0  0
 24 27  1  0  0  0
M  END
> <minimizedAffinity>
-7.18650

$$$$
ligand_40


 27 30  0  0  0  0  0  0  0  0999 V2000
  -49.1561   -1.7662   71.8883 C   0  0  0  0  0  0  0  0  0  0  0  0
  -50.4446   -2.1728   71.2108 C   0  0  0  0  0  0  0  0  0  0  0  0
  -51.1079   -3.2225   71.7135 C   0  0  0  0  0  0  0  0  0  0  0  0
  -52.3367   -3.7212   71.0979 C   0  0  0  0  0  0  0  0  0  0  0  0
  -53.0754   -4.4689   71.7411 O   0  0  0  0  0  0  0  0  0  0  0  0
  -52.6578   -3.3506   69.6620 C   0  0  0  0  0  0  0  0  0  0  0  0
  -54.0913   -3.3822   69.5583 O   0  0  0  0  0  0  0  0  0  0  0  0
  -52.0669   -2.0181   69.0970 C   0  0  0  0  0  0  0  0  0  0  0  0
  -51.4106   -2.3944   67.7255 C   0  0  0  0  0  0  0  0  0  0  0  0
  -50.8738   -1.3897   69.9682 C   0  0  0  0  0  0  0  0  0  0  0  0
  -50.9811    0.1657   70.1964 C   0  0  0  0  0  0  0  0  0  0  0  0
  -52.3776    0.8073   70.2978 C   0  0  0  0  0  0  0  0  0  0  0  0
  -52.5050    2.0192   70.4620 O   0  0  0  0  0  0  0  0  0  0  0  0
  -53.5745   -0.1212   70.1268 C   0  0  0  0  0  0  0  0  0  0  0  0
  -53.6073   -0.8296   71.5054 C   0  0  0  0  0  0  0  0  0  0  0  0
  -54.9428    0.6094   69.9774 C   0  0  0  0  0  0  0  0  0  0  0  0
  -56.0309   -0.4293   70.2097 C   0  0  0  0  0  0  0  0  0  0  0  0
  -56.5543   -0.7111   71.2703 O   0  0  0  0  0  0  0  0  0  0  0  0
  -56.2897   -1.0599   69.0228 O   0  0  0  0  0  0  0  0  0  0  0  0
  -55.5718   -0.3663   67.9866 C   0  0  0  0  0  0  0  0  0  0  0  0
  -55.3905    1.0163   68.5815 C   0  0  0  0  0  0  0  0  0  0  0  0
  -54.5380    2.0103   67.8228 C   0  0  0  0  0  0  0  0  0  0  0  0
  -54.2388   -1.0782   67.7091 C   0  0  0  0  0  0  0  0  0  0  0  0
  -54.4701   -2.4159   67.3042 O   0  0  0  0  0  0  0  0  0  0  0  0
  -53.1494   -0.9076   68.8279 C   0  0  0  0  0  0  0  0  0  0  0  0
  -54.3962   -4.0770   70.1829 H   0  0  0  0  0  0  0  0  0  0  0  0
  -54.7167   -2.9090   68.1178 H   0  0  0  0  0  0  0  0  0  0  0  0
  2  3  2  0  0  0
  3  4  1  0  0  0
  4  6  1  0  0  0
  6  8  1  0  0  0
  8 10  1  0  0  0
  2 10  1  0  0  0
 10 11  1  0  0  0
 11 12  1  0  0  0
 12 14  1  0  0  0
 14 16  1  0  0  0
 16 17  1  0  0  0
 17 19  1  0  0  0
 19 20  1  0  0  0
 20 21  1  0  0  0
 16 21  1  0  0  0
 20 23  1  0  0  0
 23 25  1  0  0  0
 14 25  1  0  0  0
  8 25  1  0  0  0
  1  2  1  0  0  0
  4  5  2  0  0  0
  6  7  1  0  0  0
  8  9  1  0  0  0
 12 13  2  0  0  0
 14 15  1  0  0  0
 17 18  2  0  0  0
 23 24  1  0  0  0
 21 22  1  0  0  0
  7 26  1  0  0  0
 24 27  1  0  0  0
M  END
> <minimizedAffinity>
-7.11035

$$$$
ligand_40


 27 30  0  0  0  0  0  0  0  0999 V2000
  -55.5948   -0.0343   73.7443 C   0  0  0  0  0  0  0  0  0  0  0  0
  -55.0382    0.2406   72.3662 C   0  0  0  0  0  0  0  0  0  0  0  0
  -54.4469    1.4246   72.1584 C   0  0  0  0  0  0  0  0  0  0  0  0
  -53.9221    1.8015   70.8469 C   0  0  0  0  0  0  0  0  0  0  0  0
  -53.1275    2.7393   70.7598 O   0  0  0  0  0  0  0  0  0  0  0  0
  -54.4015    1.0655   69.6096 C   0  0  0  0  0  0  0  0  0  0  0  0
  -53.3250    1.1484   68.6604 O   0  0  0  0  0  0  0  0  0  0  0  0
  -54.9105   -0.4029   69.7790 C   0  0  0  0  0  0  0  0  0  0  0  0
  -56.2896   -0.4604   69.0387 C   0  0  0  0  0  0  0  0  0  0  0  0
  -55.2346   -0.8312   71.2919 C   0  0  0  0  0  0  0  0  0  0  0  0
  -54.6911   -2.2533   71.6985 C   0  0  0  0  0  0  0  0  0  0  0  0
  -53.3857   -2.7609   71.0580 C   0  0  0  0  0  0  0  0  0  0  0  0
  -52.9351   -3.8703   71.3380 O   0  0  0  0  0  0  0  0  0  0  0  0
  -52.7254   -1.8501   70.0294 C   0  0  0  0  0  0  0  0  0  0  0  0
  -52.0682   -0.7859   70.9452 C   0  0  0  0  0  0  0  0  0  0  0  0
  -51.5657   -2.5144   69.2281 C   0  0  0  0  0  0  0  0  0  0  0  0
  -50.7869   -1.3919   68.5569 C   0  0  0  0  0  0  0  0  0  0  0  0
  -49.8288   -0.7973   69.0116 O   0  0  0  0  0  0  0  0  0  0  0  0
  -51.3863   -1.1024   67.3610 O   0  0  0  0  0  0  0  0  0  0  0  0
  -52.3985   -2.0962   67.1204 C   0  0  0  0  0  0  0  0  0  0  0  0
  -51.9137   -3.2670   67.9526 C   0  0  0  0  0  0  0  0  0  0  0  0
  -52.8125   -4.4795   68.0651 C   0  0  0  0  0  0  0  0  0  0  0  0
  -53.7679   -1.5664   67.5727 C   0  0  0  0  0  0  0  0  0  0  0  0
  -54.0957   -0.3830   66.8664 O   0  0  0  0  0  0  0  0  0  0  0  0
  -53.9659   -1.4810   69.1287 C   0  0  0  0  0  0  0  0  0  0  0  0
  -52.8751    2.0055   68.8301 H   0  0  0  0  0  0  0  0  0  0  0  0
  -53.5427    0.3300   67.2559 H   0  0  0  0  0  0  0  0  0  0  0  0
  2  3  2  0  0  0
  3  4  1  0  0  0
  4  6  1  0  0  0
  6  8  1  0  0  0
  8 10  1  0  0  0
  2 10  1  0  0  0
 10 11  1  0  0  0
 11 12  1  0  0  0
 12 14  1  0  0  0
 14 16  1  0  0  0
 16 17  1  0  0  0
 17 19  1  0  0  0
 19 20  1  0  0  0
 20 21  1  0  0  0
 16 21  1  0  0  0
 20 23  1  0  0  0
 23 25  1  0  0  0
 14 25  1  0  0  0
  8 25  1  0  0  0
  1  2  1  0  0  0
  4  5  2  0  0  0
  6  7  1  0  0  0
  8  9  1  0  0  0
 12 13  2  0  0  0
 14 15  1  0  0  0
 17 18  2  0  0  0
 23 24  1  0  0  0
 21 22  1  0  0  0
  7 26  1  0  0  0
 24 27  1  0  0  0
M  END
> <minimizedAffinity>
-7.09593

$$$$
ligand_40


 27 30  0  0  0  0  0  0  0  0999 V2000
  -49.1499   -2.3599   70.7884 C   0  0  0  0  0  0  0  0  0  0  0  0
  -50.3744   -1.9830   69.9864 C   0  0  0  0  0  0  0  0  0  0  0  0
  -50.5221   -2.5400   68.7770 C   0  0  0  0  0  0  0  0  0  0  0  0
  -51.6472   -2.2008   67.9073 C   0  0  0  0  0  0  0  0  0  0  0  0
  -51.9224   -2.9375   66.9586 O   0  0  0  0  0  0  0  0  0  0  0  0
  -52.4264   -0.9228   68.1563 C   0  0  0  0  0  0  0  0  0  0  0  0
  -53.7535   -1.1678   67.6607 O   0  0  0  0  0  0  0  0  0  0  0  0
  -52.4497   -0.3475   69.6098 C   0  0  0  0  0  0  0  0  0  0  0  0
  -52.0848    1.1693   69.4701 C   0  0  0  0  0  0  0  0  0  0  0  0
  -51.3321   -0.9535   70.5900 C   0  0  0  0  0  0  0  0  0  0  0  0
  -51.8593   -1.3332   72.0256 C   0  0  0  0  0  0  0  0  0  0  0  0
  -53.3108   -1.8250   72.1781 C   0  0  0  0  0  0  0  0  0  0  0  0
  -53.7651   -2.1183   73.2825 O   0  0  0  0  0  0  0  0  0  0  0  0
  -54.1576   -1.8708   70.9113 C   0  0  0  0  0  0  0  0  0  0  0  0
  -53.6106   -3.1503   70.2279 C   0  0  0  0  0  0  0  0  0  0  0  0
  -55.6757   -2.1210   71.1577 C   0  0  0  0  0  0  0  0  0  0  0  0
  -56.2847   -2.5207   69.8212 C   0  0  0  0  0  0  0  0  0  0  0  0
  -56.4018   -3.6485   69.3824 O   0  0  0  0  0  0  0  0  0  0  0  0
  -56.6290   -1.3826   69.1433 O   0  0  0  0  0  0  0  0  0  0  0  0
  -56.4569   -0.2664   70.0347 C   0  0  0  0  0  0  0  0  0  0  0  0
  -56.5718   -0.9157   71.3999 C   0  0  0  0  0  0  0  0  0  0  0  0
  -56.2996   -0.0607   72.6187 C   0  0  0  0  0  0  0  0  0  0  0  0
  -55.0868    0.3862   69.7954 C   0  0  0  0  0  0  0  0  0  0  0  0
  -54.9828    0.8357   68.4560 O   0  0  0  0  0  0  0  0  0  0  0  0
  -53.8567   -0.4452   70.3085 C   0  0  0  0  0  0  0  0  0  0  0  0
  -53.6535   -1.7859   66.9032 H   0  0  0  0  0  0  0  0  0  0  0  0
  -54.8441    0.0319   67.9078 H   0  0  0  0  0  0  0  0  0  0  0  0
  2  3  2  0  0  0
  3  4  1  0  0  0
  4  6  1  0  0  0
  6  8  1  0  0  0
  8 10  1  0  0  0
  2 10  1  0  0  0
 10 11  1  0  0  0
 11 12  1  0  0  0
 12 14  1  0  0  0
 14 16  1  0  0  0
 16 17  1  0  0  0
 17 19  1  0  0  0
 19 20  1  0  0  0
 20 21  1  0  0  0
 16 21  1  0  0  0
 20 23  1  0  0  0
 23 25  1  0  0  0
 14 25  1  0  0  0
  8 25  1  0  0  0
  1  2  1  0  0  0
  4  5  2  0  0  0
  6  7  1  0  0  0
  8  9  1  0  0  0
 12 13  2  0  0  0
 14 15  1  0  0  0
 17 18  2  0  0  0
 23 24  1  0  0  0
 21 22  1  0  0  0
  7 26  1  0  0  0
 24 27  1  0  0  0
M  END
> <minimizedAffinity>
-6.46985

$$$$
