ligand_19


 13 13  0  0  0  0  0  0  0  0999 V2000
  -47.2518   -1.6912   80.8829 C   0  0  0  0  0  0  0  0  0  0  0  0
  -48.5131   -2.1583   80.4784 C   0  0  0  0  0  0  0  0  0  0  0  0
  -48.6304   -3.2705   79.6397 C   0  0  0  0  0  0  0  0  0  0  0  0
  -47.4826   -3.9175   79.1969 C   0  0  0  0  0  0  0  0  0  0  0  0
  -47.5512   -5.0047   78.3770 O   0  0  0  0  0  0  0  0  0  0  0  0
  -46.2243   -3.4718   79.5784 C   0  0  0  0  0  0  0  0  0  0  0  0
  -46.1081   -2.3617   80.4173 C   0  0  0  0  0  0  0  0  0  0  0  0
  -48.4865   -5.2121   78.2189 H   0  0  0  0  0  0  0  0  0  0  0  0
  -47.0948   -0.4681   81.7645 C   0  0  0  0  0  0  0  0  0  0  0  0
  -47.4194   -0.7915   83.1159 O   0  0  0  0  0  0  0  0  0  0  0  0
  -48.3642   -0.6104   83.2450 H   0  0  0  0  0  0  0  0  0  0  0  0
  -47.2407    1.5101   80.1767 C   0  0  0  0  0  0  0  0  0  0  0  0
  -47.9489    0.7023   81.2562 C   0  0  0  0  0  0  0  0  0  0  0  0
 12 13  1  0  0  0
 13  9  1  0  0  0
  9 10  1  0  0  0
  9  1  1  0  0  0
  1  2  2  0  0  0
  2  3  1  0  0  0
  3  4  2  0  0  0
  4  5  1  0  0  0
  4  6  1  0  0  0
  6  7  2  0  0  0
  1  7  1  0  0  0
 10 11  1  0  0  0
  5  8  1  0  0  0
M  END
> <minimizedAffinity>
-5.55412

$$$$
ligand_19


 13 13  0  0  0  0  0  0  0  0999 V2000
  -47.1059   -1.5276   80.9435 C   0  0  0  0  0  0  0  0  0  0  0  0
  -45.9588   -2.2580   80.5924 C   0  0  0  0  0  0  0  0  0  0  0  0
  -46.0529   -3.3971   79.7876 C   0  0  0  0  0  0  0  0  0  0  0  0
  -47.2993   -3.8139   79.3349 C   0  0  0  0  0  0  0  0  0  0  0  0
  -47.4367   -4.9198   78.5494 O   0  0  0  0  0  0  0  0  0  0  0  0
  -48.4486   -3.1119   79.6726 C   0  0  0  0  0  0  0  0  0  0  0  0
  -48.3535   -1.9734   80.4754 C   0  0  0  0  0  0  0  0  0  0  0  0
  -46.5543   -5.2867   78.3778 H   0  0  0  0  0  0  0  0  0  0  0  0
  -47.0363   -0.3084   81.8417 C   0  0  0  0  0  0  0  0  0  0  0  0
  -47.4162   -0.6562   83.1725 O   0  0  0  0  0  0  0  0  0  0  0  0
  -48.3721   -0.5093   83.2555 H   0  0  0  0  0  0  0  0  0  0  0  0
  -47.1799    1.6663   80.2494 C   0  0  0  0  0  0  0  0  0  0  0  0
  -47.9049    0.8364   81.3006 C   0  0  0  0  0  0  0  0  0  0  0  0
 12 13  1  0  0  0
 13  9  1  0  0  0
  9 10  1  0  0  0
  9  1  1  0  0  0
  1  2  2  0  0  0
  2  3  1  0  0  0
  3  4  2  0  0  0
  4  5  1  0  0  0
  4  6  1  0  0  0
  6  7  2  0  0  0
  1  7  1  0  0  0
 10 11  1  0  0  0
  5  8  1  0  0  0
M  END
> <minimizedAffinity>
-5.54050

$$$$
ligand_19


 13 13  0  0  0  0  0  0  0  0999 V2000
  -47.5244    0.5795   81.8062 C   0  0  0  0  0  0  0  0  0  0  0  0
  -48.1963    1.3192   82.7932 C   0  0  0  0  0  0  0  0  0  0  0  0
  -48.1597    2.7165   82.7909 C   0  0  0  0  0  0  0  0  0  0  0  0
  -47.4439    3.3805   81.8015 C   0  0  0  0  0  0  0  0  0  0  0  0
  -47.3806    4.7419   81.7625 O   0  0  0  0  0  0  0  0  0  0  0  0
  -46.7671    2.6718   80.8180 C   0  0  0  0  0  0  0  0  0  0  0  0
  -46.8053    1.2761   80.8203 C   0  0  0  0  0  0  0  0  0  0  0  0
  -47.9175    5.0957   82.4901 H   0  0  0  0  0  0  0  0  0  0  0  0
  -47.5201   -0.9364   81.8044 C   0  0  0  0  0  0  0  0  0  0  0  0
  -47.5719   -1.4295   83.1424 O   0  0  0  0  0  0  0  0  0  0  0  0
  -46.6590   -1.5507   83.4490 H   0  0  0  0  0  0  0  0  0  0  0  0
  -46.6496   -2.6892   80.1841 C   0  0  0  0  0  0  0  0  0  0  0  0
  -46.2988   -1.4922   81.0578 C   0  0  0  0  0  0  0  0  0  0  0  0
 12 13  1  0  0  0
 13  9  1  0  0  0
  9 10  1  0  0  0
  9  1  1  0  0  0
  1  2  2  0  0  0
  2  3  1  0  0  0
  3  4  2  0  0  0
  4  5  1  0  0  0
  4  6  1  0  0  0
  6  7  2  0  0  0
  1  7  1  0  0  0
 10 11  1  0  0  0
  5  8  1  0  0  0
M  END
> <minimizedAffinity>
-5.52490

$$$$
ligand_19


 13 13  0  0  0  0  0  0  0  0999 V2000
  -48.0142   -2.9018   80.0343 C   0  0  0  0  0  0  0  0  0  0  0  0
  -47.9470   -1.6941   80.7482 C   0  0  0  0  0  0  0  0  0  0  0  0
  -46.7211   -1.1933   81.1957 C   0  0  0  0  0  0  0  0  0  0  0  0
  -45.5554   -1.9041   80.9348 C   0  0  0  0  0  0  0  0  0  0  0  0
  -44.3390   -1.4529   81.3541 O   0  0  0  0  0  0  0  0  0  0  0  0
  -45.5962   -3.1029   80.2357 C   0  0  0  0  0  0  0  0  0  0  0  0
  -46.8210   -3.6018   79.7879 C   0  0  0  0  0  0  0  0  0  0  0  0
  -44.4647   -0.6002   81.8011 H   0  0  0  0  0  0  0  0  0  0  0  0
  -49.3332   -3.4842   79.5664 C   0  0  0  0  0  0  0  0  0  0  0  0
  -50.3883   -3.0705   80.4338 O   0  0  0  0  0  0  0  0  0  0  0  0
  -50.4804   -3.7416   81.1290 H   0  0  0  0  0  0  0  0  0  0  0  0
  -49.8054   -5.6990   80.7186 C   0  0  0  0  0  0  0  0  0  0  0  0
  -49.2666   -5.0152   79.4690 C   0  0  0  0  0  0  0  0  0  0  0  0
 12 13  1  0  0  0
 13  9  1  0  0  0
  9 10  1  0  0  0
  9  1  1  0  0  0
  1  2  2  0  0  0
  2  3  1  0  0  0
  3  4  2  0  0  0
  4  5  1  0  0  0
  4  6  1  0  0  0
  6  7  2  0  0  0
  1  7  1  0  0  0
 10 11  1  0  0  0
  5  8  1  0  0  0
M  END
> <minimizedAffinity>
-5.21367

$$$$
ligand_19


 13 13  0  0  0  0  0  0  0  0999 V2000
  -50.3953   -6.7788   78.8455 C   0  0  0  0  0  0  0  0  0  0  0  0
  -49.8888   -6.0017   79.9002 C   0  0  0  0  0  0  0  0  0  0  0  0
  -50.0240   -6.4192   81.2273 C   0  0  0  0  0  0  0  0  0  0  0  0
  -50.6736   -7.6163   81.5051 C   0  0  0  0  0  0  0  0  0  0  0  0
  -50.8288   -8.0602   82.7848 O   0  0  0  0  0  0  0  0  0  0  0  0
  -51.1876   -8.3996   80.4805 C   0  0  0  0  0  0  0  0  0  0  0  0
  -51.0509   -7.9824   79.1550 C   0  0  0  0  0  0  0  0  0  0  0  0
  -50.4005   -7.4275   83.3839 H   0  0  0  0  0  0  0  0  0  0  0  0
  -50.2918   -6.3337   77.4002 C   0  0  0  0  0  0  0  0  0  0  0  0
  -50.4341   -7.4552   76.5293 O   0  0  0  0  0  0  0  0  0  0  0  0
  -49.5472   -7.8089   76.3545 H   0  0  0  0  0  0  0  0  0  0  0  0
  -48.2000   -6.1865   75.9654 C   0  0  0  0  0  0  0  0  0  0  0  0
  -48.9733   -5.5925   77.1353 C   0  0  0  0  0  0  0  0  0  0  0  0
 12 13  1  0  0  0
 13  9  1  0  0  0
  9 10  1  0  0  0
  9  1  1  0  0  0
  1  2  2  0  0  0
  2  3  1  0  0  0
  3  4  2  0  0  0
  4  5  1  0  0  0
  4  6  1  0  0  0
  6  7  2  0  0  0
  1  7  1  0  0  0
 10 11  1  0  0  0
  5  8  1  0  0  0
M  END
> <minimizedAffinity>
-5.16838

$$$$
