5Y2O


 26 28  0  0  0  0  0  0  0  0999 V2000
  -47.4916   -2.6545   80.1592 C   0  0  0  0  0  0  0  0  0  0  0  0
  -48.7719   -2.9505   80.6090 C   0  0  0  0  0  0  0  0  0  0  0  0
  -49.4626   -4.0304   80.0757 C   0  0  0  0  0  0  0  0  0  0  0  0
  -48.9018   -4.8246   79.0791 C   0  0  0  0  0  0  0  0  0  0  0  0
  -47.6260   -4.5226   78.6082 C   0  0  0  0  0  0  0  0  0  0  0  0
  -46.9255   -3.4428   79.1527 C   0  0  0  0  0  0  0  0  0  0  0  0
  -46.7939   -1.5606   80.6993 C   0  0  0  0  0  0  0  0  0  0  0  0
  -47.4565    1.1057   80.6091 S   0  0  0  0  0  0  0  0  0  0  0  0
  -47.0056    1.7697   82.0583 C   0  0  0  0  0  0  0  0  0  0  0  0
  -46.6331    2.9310   82.1867 O   0  0  0  0  0  0  0  0  0  0  0  0
  -47.0910    0.8888   83.0641 N   0  0  0  0  0  0  0  0  0  0  0  0
  -47.5058   -0.3405   82.6733 C   0  0  0  0  0  0  0  0  0  0  0  0
  -47.6320   -1.2404   83.5007 O   0  0  0  0  0  0  0  0  0  0  0  0
  -47.7602   -0.5402   81.2976 C   0  0  0  0  0  0  0  0  0  0  0  0
  -46.8733    1.1132   83.9976 H   0  0  0  0  0  0  0  0  0  0  0  0
  -49.6327   -5.8749   78.5893 O   0  0  0  0  0  0  0  0  0  0  0  0
  -49.4847   -6.0585   77.1678 C   0  0  0  0  0  0  0  0  0  0  0  0
  -50.8431   -6.4521   76.5354 C   0  0  0  0  0  0  0  0  0  0  0  0
  -51.2857   -5.4748   75.6257 C   0  0  0  0  0  0  0  0  0  0  0  0
  -52.4902   -5.5540   75.0320 N   0  0  0  0  0  0  0  0  0  0  0  0
  -52.9159   -4.5488   74.1309 C   0  0  0  0  0  0  0  0  0  0  0  0
  -52.0813   -3.4640   73.8517 C   0  0  0  0  0  0  0  0  0  0  0  0
  -50.8414   -3.3981   74.4704 C   0  0  0  0  0  0  0  0  0  0  0  0
  -50.4568   -4.3934   75.3580 C   0  0  0  0  0  0  0  0  0  0  0  0
  -52.4517   -2.4522   72.9536 C   0  0  0  0  0  0  0  0  0  0  0  0
  -51.3232   -2.1716   71.9587 C   0  0  0  0  0  0  0  0  0  0  0  0
  8  9  1  0  0  0
  9 10  2  0  0  0
  9 11  1  0  0  0
 11 12  1  0  0  0
 12 14  1  0  0  0
 12 13  2  0  0  0
  8 14  1  0  0  0
 14  7  1  0  0  0
  7  1  1  0  0  0
  1  2  2  0  0  0
  1  6  1  0  0  0
  2  3  1  0  0  0
  3  4  2  0  0  0
  4 16  1  0  0  0
  4  5  1  0  0  0
  5  6  2  0  0  0
 16 17  1  0  0  0
 17 18  1  0  0  0
 18 19  1  0  0  0
 19 20  2  0  0  0
 20 21  1  0  0  0
 21 22  2  0  0  0
 22 23  1  0  0  0
 23 24  2  0  0  0
 19 24  1  0  0  0
 22 25  1  0  0  0
 25 26  1  0  0  0
 11 15  1  0  0  0
M  END
> <minimizedAffinity>
-8.59952

$$$$
5Y2O


 26 28  0  0  0  0  0  0  0  0999 V2000
  -47.2139   -2.1172   80.3671 C   0  0  0  0  0  0  0  0  0  0  0  0
  -46.4317   -2.9733   79.6027 C   0  0  0  0  0  0  0  0  0  0  0  0
  -47.0124   -4.0633   78.9682 C   0  0  0  0  0  0  0  0  0  0  0  0
  -48.3732   -4.3299   79.0927 C   0  0  0  0  0  0  0  0  0  0  0  0
  -49.1613   -3.4875   79.8736 C   0  0  0  0  0  0  0  0  0  0  0  0
  -48.5797   -2.3835   80.5032 C   0  0  0  0  0  0  0  0  0  0  0  0
  -46.6247   -1.0147   81.0096 C   0  0  0  0  0  0  0  0  0  0  0  0
  -47.1454    1.6161   80.4064 S   0  0  0  0  0  0  0  0  0  0  0  0
  -46.9755    2.4810   81.8091 C   0  0  0  0  0  0  0  0  0  0  0  0
  -46.5904    3.6446   81.8471 O   0  0  0  0  0  0  0  0  0  0  0  0
  -47.3018    1.7583   82.8889 N   0  0  0  0  0  0  0  0  0  0  0  0
  -47.6771    0.4893   82.5978 C   0  0  0  0  0  0  0  0  0  0  0  0
  -48.0073   -0.2780   83.4992 O   0  0  0  0  0  0  0  0  0  0  0  0
  -47.6510    0.0924   81.2418 C   0  0  0  0  0  0  0  0  0  0  0  0
  -47.2717    2.1150   83.8060 H   0  0  0  0  0  0  0  0  0  0  0  0
  -48.8889   -5.4221   78.4456 O   0  0  0  0  0  0  0  0  0  0  0  0
  -48.3047   -5.6436   77.1471 C   0  0  0  0  0  0  0  0  0  0  0  0
  -49.2787   -6.4519   76.2538 C   0  0  0  0  0  0  0  0  0  0  0  0
  -50.3061   -5.6348   75.7483 C   0  0  0  0  0  0  0  0  0  0  0  0
  -50.0714   -4.3759   75.3364 N   0  0  0  0  0  0  0  0  0  0  0  0
  -51.1217   -3.5805   74.8188 C   0  0  0  0  0  0  0  0  0  0  0  0
  -52.4147   -4.1023   74.7341 C   0  0  0  0  0  0  0  0  0  0  0  0
  -52.6406   -5.4015   75.1651 C   0  0  0  0  0  0  0  0  0  0  0  0
  -51.5880   -6.1605   75.6572 C   0  0  0  0  0  0  0  0  0  0  0  0
  -53.4909   -3.3477   74.2444 C   0  0  0  0  0  0  0  0  0  0  0  0
  -54.8035   -4.1218   74.3853 C   0  0  0  0  0  0  0  0  0  0  0  0
  8  9  1  0  0  0
  9 10  2  0  0  0
  9 11  1  0  0  0
 11 12  1  0  0  0
 12 14  1  0  0  0
 12 13  2  0  0  0
  8 14  1  0  0  0
 14  7  1  0  0  0
  7  1  1  0  0  0
  1  2  2  0  0  0
  1  6  1  0  0  0
  2  3  1  0  0  0
  3  4  2  0  0  0
  4 16  1  0  0  0
  4  5  1  0  0  0
  5  6  2  0  0  0
 16 17  1  0  0  0
 17 18  1  0  0  0
 18 19  1  0  0  0
 19 20  2  0  0  0
 20 21  1  0  0  0
 21 22  2  0  0  0
 22 23  1  0  0  0
 23 24  2  0  0  0
 19 24  1  0  0  0
 22 25  1  0  0  0
 25 26  1  0  0  0
 11 15  1  0  0  0
M  END
> <minimizedAffinity>
-8.53880

$$$$
5Y2O


 26 28  0  0  0  0  0  0  0  0999 V2000
  -47.2226   -2.2214   80.3968 C   0  0  0  0  0  0  0  0  0  0  0  0
  -48.5333   -2.5420   80.7259 C   0  0  0  0  0  0  0  0  0  0  0  0
  -49.1314   -3.6681   80.1764 C   0  0  0  0  0  0  0  0  0  0  0  0
  -48.4454   -4.4856   79.2821 C   0  0  0  0  0  0  0  0  0  0  0  0
  -47.1371   -4.1601   78.9314 C   0  0  0  0  0  0  0  0  0  0  0  0
  -46.5306   -3.0332   79.4930 C   0  0  0  0  0  0  0  0  0  0  0  0
  -46.6188   -1.0807   80.9531 C   0  0  0  0  0  0  0  0  0  0  0  0
  -47.1831    1.5416   80.3520 S   0  0  0  0  0  0  0  0  0  0  0  0
  -46.9931    2.4137   81.7476 C   0  0  0  0  0  0  0  0  0  0  0  0
  -46.6210    3.5819   81.7732 O   0  0  0  0  0  0  0  0  0  0  0  0
  -47.2876    1.6913   82.8368 N   0  0  0  0  0  0  0  0  0  0  0  0
  -47.6542    0.4170   82.5583 C   0  0  0  0  0  0  0  0  0  0  0  0
  -47.9560   -0.3507   83.4693 O   0  0  0  0  0  0  0  0  0  0  0  0
  -47.6527    0.0153   81.2035 C   0  0  0  0  0  0  0  0  0  0  0  0
  -47.2420    2.0519   83.7518 H   0  0  0  0  0  0  0  0  0  0  0  0
  -49.0889   -5.5817   78.7703 O   0  0  0  0  0  0  0  0  0  0  0  0
  -49.6739   -5.3458   77.4747 C   0  0  0  0  0  0  0  0  0  0  0  0
  -48.7561   -5.9126   76.3627 C   0  0  0  0  0  0  0  0  0  0  0  0
  -48.7890   -5.1047   75.2118 C   0  0  0  0  0  0  0  0  0  0  0  0
  -49.8747   -4.3802   74.8862 N   0  0  0  0  0  0  0  0  0  0  0  0
  -49.8752   -3.5647   73.7293 C   0  0  0  0  0  0  0  0  0  0  0  0
  -48.7416   -3.5093   72.9148 C   0  0  0  0  0  0  0  0  0  0  0  0
  -47.6310   -4.2641   73.2631 C   0  0  0  0  0  0  0  0  0  0  0  0
  -47.6568   -5.0453   74.4100 C   0  0  0  0  0  0  0  0  0  0  0  0
  -48.7000   -2.7294   71.7497 C   0  0  0  0  0  0  0  0  0  0  0  0
  -49.7728   -1.6387   71.7897 C   0  0  0  0  0  0  0  0  0  0  0  0
  8  9  1  0  0  0
  9 10  2  0  0  0
  9 11  1  0  0  0
 11 12  1  0  0  0
 12 14  1  0  0  0
 12 13  2  0  0  0
  8 14  1  0  0  0
 14  7  1  0  0  0
  7  1  1  0  0  0
  1  2  2  0  0  0
  1  6  1  0  0  0
  2  3  1  0  0  0
  3  4  2  0  0  0
  4 16  1  0  0  0
  4  5  1  0  0  0
  5  6  2  0  0  0
 16 17  1  0  0  0
 17 18  1  0  0  0
 18 19  1  0  0  0
 19 20  2  0  0  0
 20 21  1  0  0  0
 21 22  2  0  0  0
 22 23  1  0  0  0
 23 24  2  0  0  0
 19 24  1  0  0  0
 22 25  1  0  0  0
 25 26  1  0  0  0
 11 15  1  0  0  0
M  END
> <minimizedAffinity>
-8.49478

$$$$
5Y2O


 26 28  0  0  0  0  0  0  0  0999 V2000
  -51.8344   -2.9781   72.9689 C   0  0  0  0  0  0  0  0  0  0  0  0
  -52.7489   -3.9322   73.3958 C   0  0  0  0  0  0  0  0  0  0  0  0
  -52.4566   -4.7322   74.4922 C   0  0  0  0  0  0  0  0  0  0  0  0
  -51.2486   -4.6093   75.1735 C   0  0  0  0  0  0  0  0  0  0  0  0
  -50.3174   -3.6685   74.7396 C   0  0  0  0  0  0  0  0  0  0  0  0
  -50.6157   -2.8548   73.6432 C   0  0  0  0  0  0  0  0  0  0  0  0
  -52.1312   -2.1695   71.8583 C   0  0  0  0  0  0  0  0  0  0  0  0
  -50.2779   -1.3486   70.0014 S   0  0  0  0  0  0  0  0  0  0  0  0
  -51.0737   -1.1842   68.5578 C   0  0  0  0  0  0  0  0  0  0  0  0
  -50.7643   -0.3628   67.7014 O   0  0  0  0  0  0  0  0  0  0  0  0
  -52.0922   -2.0470   68.4431 N   0  0  0  0  0  0  0  0  0  0  0  0
  -52.2537   -2.8412   69.5289 C   0  0  0  0  0  0  0  0  0  0  0  0
  -53.1502   -3.6816   69.5501 O   0  0  0  0  0  0  0  0  0  0  0  0
  -51.3762   -2.6475   70.6195 C   0  0  0  0  0  0  0  0  0  0  0  0
  -52.6681   -2.0989   67.6463 H   0  0  0  0  0  0  0  0  0  0  0  0
  -51.0151   -5.4287   76.2465 O   0  0  0  0  0  0  0  0  0  0  0  0
  -49.6423   -5.4171   76.6845 C   0  0  0  0  0  0  0  0  0  0  0  0
  -49.5635   -5.7094   78.2038 C   0  0  0  0  0  0  0  0  0  0  0  0
  -48.8029   -4.7338   78.8733 C   0  0  0  0  0  0  0  0  0  0  0  0
  -47.5035   -4.5317   78.5898 N   0  0  0  0  0  0  0  0  0  0  0  0
  -46.7655   -3.5333   79.2694 C   0  0  0  0  0  0  0  0  0  0  0  0
  -47.3868   -2.7494   80.2445 C   0  0  0  0  0  0  0  0  0  0  0  0
  -48.7268   -2.9718   80.5267 C   0  0  0  0  0  0  0  0  0  0  0  0
  -49.4268   -3.9506   79.8352 C   0  0  0  0  0  0  0  0  0  0  0  0
  -46.6934   -1.7596   80.9565 C   0  0  0  0  0  0  0  0  0  0  0  0
  -47.4392   -0.4248   80.8938 C   0  0  0  0  0  0  0  0  0  0  0  0
  8  9  1  0  0  0
  9 10  2  0  0  0
  9 11  1  0  0  0
 11 12  1  0  0  0
 12 14  1  0  0  0
 12 13  2  0  0  0
  8 14  1  0  0  0
 14  7  1  0  0  0
  7  1  1  0  0  0
  1  2  2  0  0  0
  1  6  1  0  0  0
  2  3  1  0  0  0
  3  4  2  0  0  0
  4 16  1  0  0  0
  4  5  1  0  0  0
  5  6  2  0  0  0
 16 17  1  0  0  0
 17 18  1  0  0  0
 18 19  1  0  0  0
 19 20  2  0  0  0
 20 21  1  0  0  0
 21 22  2  0  0  0
 22 23  1  0  0  0
 23 24  2  0  0  0
 19 24  1  0  0  0
 22 25  1  0  0  0
 25 26  1  0  0  0
 11 15  1  0  0  0
M  END
> <minimizedAffinity>
-7.77015

$$$$
5Y2O


 26 28  0  0  0  0  0  0  0  0999 V2000
  -46.8985   -1.6337   80.8925 C   0  0  0  0  0  0  0  0  0  0  0  0
  -48.2338   -1.9043   80.6227 C   0  0  0  0  0  0  0  0  0  0  0  0
  -48.5814   -3.0489   79.9178 C   0  0  0  0  0  0  0  0  0  0  0  0
  -47.6112   -3.9351   79.4573 C   0  0  0  0  0  0  0  0  0  0  0  0
  -46.2684   -3.6609   79.7064 C   0  0  0  0  0  0  0  0  0  0  0  0
  -45.9184   -2.5150   80.4259 C   0  0  0  0  0  0  0  0  0  0  0  0
  -46.5480   -0.4742   81.6054 C   0  0  0  0  0  0  0  0  0  0  0  0
  -46.9200    2.0391   80.5561 S   0  0  0  0  0  0  0  0  0  0  0  0
  -47.1104    3.0774   81.8329 C   0  0  0  0  0  0  0  0  0  0  0  0
  -46.7548    4.2508   81.8129 O   0  0  0  0  0  0  0  0  0  0  0  0
  -47.6904    2.4822   82.8838 N   0  0  0  0  0  0  0  0  0  0  0  0
  -47.9728    1.1733   82.6767 C   0  0  0  0  0  0  0  0  0  0  0  0
  -48.5118    0.5116   83.5610 O   0  0  0  0  0  0  0  0  0  0  0  0
  -47.6073    0.6124   81.4322 C   0  0  0  0  0  0  0  0  0  0  0  0
  -47.8919    2.9510   83.7257 H   0  0  0  0  0  0  0  0  0  0  0  0
  -48.0147   -5.0463   78.7647 O   0  0  0  0  0  0  0  0  0  0  0  0
  -49.2390   -5.6172   79.2662 C   0  0  0  0  0  0  0  0  0  0  0  0
  -50.1417   -6.0644   78.0893 C   0  0  0  0  0  0  0  0  0  0  0  0
  -49.6433   -5.6011   76.8582 C   0  0  0  0  0  0  0  0  0  0  0  0
  -50.2904   -4.6663   76.1392 N   0  0  0  0  0  0  0  0  0  0  0  0
  -49.7588   -4.2080   74.9101 C   0  0  0  0  0  0  0  0  0  0  0  0
  -48.5528   -4.7287   74.4347 C   0  0  0  0  0  0  0  0  0  0  0  0
  -47.8990   -5.6937   75.1869 C   0  0  0  0  0  0  0  0  0  0  0  0
  -48.4396   -6.1145   76.3939 C   0  0  0  0  0  0  0  0  0  0  0  0
  -47.9948   -4.3187   73.2149 C   0  0  0  0  0  0  0  0  0  0  0  0
  -46.5067   -4.6704   73.1549 C   0  0  0  0  0  0  0  0  0  0  0  0
  8  9  1  0  0  0
  9 10  2  0  0  0
  9 11  1  0  0  0
 11 12  1  0  0  0
 12 14  1  0  0  0
 12 13  2  0  0  0
  8 14  1  0  0  0
 14  7  1  0  0  0
  7  1  1  0  0  0
  1  2  2  0  0  0
  1  6  1  0  0  0
  2  3  1  0  0  0
  3  4  2  0  0  0
  4 16  1  0  0  0
  4  5  1  0  0  0
  5  6  2  0  0  0
 16 17  1  0  0  0
 17 18  1  0  0  0
 18 19  1  0  0  0
 19 20  2  0  0  0
 20 21  1  0  0  0
 21 22  2  0  0  0
 22 23  1  0  0  0
 23 24  2  0  0  0
 19 24  1  0  0  0
 22 25  1  0  0  0
 25 26  1  0  0  0
 11 15  1  0  0  0
M  END
> <minimizedAffinity>
-7.57155

$$$$
