ligand_7


 15 16  0  0  0  0  0  0  0  0999 V2000
  -50.9397   -7.8583   81.8669 C   0  0  0  0  0  0  0  0  0  0  0  0
  -50.1413   -6.7418   81.6071 C   0  0  0  0  0  0  0  0  0  0  0  0
  -49.9319   -6.3078   80.2881 C   0  0  0  0  0  0  0  0  0  0  0  0
  -50.5426   -6.9866   79.2187 C   0  0  0  0  0  0  0  0  0  0  0  0
  -51.3165   -8.1268   79.4820 C   0  0  0  0  0  0  0  0  0  0  0  0
  -51.5055   -8.5564   80.7960 C   0  0  0  0  0  0  0  0  0  0  0  0
  -52.2679   -9.6656   81.0491 O   0  0  0  0  0  0  0  0  0  0  0  0
  -50.3108   -6.5503   77.7864 C   0  0  0  0  0  0  0  0  0  0  0  0
  -49.8315   -5.1621   77.6641 N   0  0  0  0  0  0  0  0  0  0  0  0
  -49.4828   -4.8657   76.2767 C   0  0  0  0  0  0  0  0  0  0  0  0
  -48.6789   -4.9530   78.5513 C   0  0  0  0  0  0  0  0  0  0  0  0
  -49.1026   -5.0759   80.0213 C   0  0  0  0  0  0  0  0  0  0  0  0
  -52.5756  -10.0359   80.2082 H   0  0  0  0  0  0  0  0  0  0  0  0
  -52.0702   -7.5860   83.9105 C   0  0  0  0  0  0  0  0  0  0  0  0
  -51.1602   -8.3498   83.1275 O   0  0  0  0  0  0  0  0  0  0  0  0
 14 15  1  0  0  0
 15  1  1  0  0  0
  1  2  2  0  0  0
  2  3  1  0  0  0
  3  4  2  0  0  0
  4  5  1  0  0  0
  5  6  2  0  0  0
  1  6  1  0  0  0
  6  7  1  0  0  0
  4  8  1  0  0  0
  8  9  1  0  0  0
  9 10  1  0  0  0
  9 11  1  0  0  0
 11 12  1  0  0  0
  3 12  1  0  0  0
  7 13  1  0  0  0
M  END
> <minimizedAffinity>
-5.72979

$$$$
ligand_7


 15 16  0  0  0  0  0  0  0  0999 V2000
  -49.3869   -5.4106   77.9392 C   0  0  0  0  0  0  0  0  0  0  0  0
  -50.1516   -6.5700   78.0891 C   0  0  0  0  0  0  0  0  0  0  0  0
  -50.5189   -7.0203   79.3676 C   0  0  0  0  0  0  0  0  0  0  0  0
  -50.1329   -6.2929   80.5075 C   0  0  0  0  0  0  0  0  0  0  0  0
  -49.3373   -5.1477   80.3539 C   0  0  0  0  0  0  0  0  0  0  0  0
  -48.9670   -4.7184   79.0789 C   0  0  0  0  0  0  0  0  0  0  0  0
  -48.1965   -3.5956   78.9331 O   0  0  0  0  0  0  0  0  0  0  0  0
  -50.4975   -6.7736   81.8973 C   0  0  0  0  0  0  0  0  0  0  0  0
  -51.6259   -7.7212   81.9153 N   0  0  0  0  0  0  0  0  0  0  0  0
  -51.8168   -8.2579   83.2607 C   0  0  0  0  0  0  0  0  0  0  0  0
  -51.3849   -8.8014   80.9486 C   0  0  0  0  0  0  0  0  0  0  0  0
  -51.3804   -8.2499   79.5163 C   0  0  0  0  0  0  0  0  0  0  0  0
  -47.9841   -3.2423   79.8101 H   0  0  0  0  0  0  0  0  0  0  0  0
  -48.2438   -5.8707   75.9368 C   0  0  0  0  0  0  0  0  0  0  0  0
  -48.9716   -4.9342   76.7228 O   0  0  0  0  0  0  0  0  0  0  0  0
 14 15  1  0  0  0
 15  1  1  0  0  0
  1  2  2  0  0  0
  2  3  1  0  0  0
  3  4  2  0  0  0
  4  5  1  0  0  0
  5  6  2  0  0  0
  1  6  1  0  0  0
  6  7  1  0  0  0
  4  8  1  0  0  0
  8  9  1  0  0  0
  9 10  1  0  0  0
  9 11  1  0  0  0
 11 12  1  0  0  0
  3 12  1  0  0  0
  7 13  1  0  0  0
M  END
> <minimizedAffinity>
-5.65912

$$$$
ligand_7


 15 16  0  0  0  0  0  0  0  0999 V2000
  -51.7198   -8.9444   81.6794 C   0  0  0  0  0  0  0  0  0  0  0  0
  -51.5882   -8.8925   80.2896 C   0  0  0  0  0  0  0  0  0  0  0  0
  -50.9688   -7.7929   79.6738 C   0  0  0  0  0  0  0  0  0  0  0  0
  -50.4589   -6.7426   80.4575 C   0  0  0  0  0  0  0  0  0  0  0  0
  -50.6227   -6.7836   81.8502 C   0  0  0  0  0  0  0  0  0  0  0  0
  -51.2527   -7.8750   82.4492 C   0  0  0  0  0  0  0  0  0  0  0  0
  -51.4038   -7.9144   83.8098 O   0  0  0  0  0  0  0  0  0  0  0  0
  -49.8087   -5.5356   79.8126 C   0  0  0  0  0  0  0  0  0  0  0  0
  -49.3507   -5.7801   78.4335 N   0  0  0  0  0  0  0  0  0  0  0  0
  -48.8809   -4.5370   77.8265 C   0  0  0  0  0  0  0  0  0  0  0  0
  -50.4405   -6.3707   77.6440 C   0  0  0  0  0  0  0  0  0  0  0  0
  -50.7940   -7.7665   78.1754 C   0  0  0  0  0  0  0  0  0  0  0  0
  -51.0397   -7.1016   84.1916 H   0  0  0  0  0  0  0  0  0  0  0  0
  -53.2947  -10.6863   81.5627 C   0  0  0  0  0  0  0  0  0  0  0  0
  -52.3388   -9.9741   82.3395 O   0  0  0  0  0  0  0  0  0  0  0  0
 14 15  1  0  0  0
 15  1  1  0  0  0
  1  2  2  0  0  0
  2  3  1  0  0  0
  3  4  2  0  0  0
  4  5  1  0  0  0
  5  6  2  0  0  0
  1  6  1  0  0  0
  6  7  1  0  0  0
  4  8  1  0  0  0
  8  9  1  0  0  0
  9 10  1  0  0  0
  9 11  1  0  0  0
 11 12  1  0  0  0
  3 12  1  0  0  0
  7 13  1  0  0  0
M  END
> <minimizedAffinity>
-5.61798

$$$$
ligand_7


 15 16  0  0  0  0  0  0  0  0999 V2000
  -49.9244   -5.7607   75.9531 C   0  0  0  0  0  0  0  0  0  0  0  0
  -49.7672   -4.6085   75.1790 C   0  0  0  0  0  0  0  0  0  0  0  0
  -50.8591   -4.0632   74.4842 C   0  0  0  0  0  0  0  0  0  0  0  0
  -52.1259   -4.6661   74.5797 C   0  0  0  0  0  0  0  0  0  0  0  0
  -52.2715   -5.8416   75.3315 C   0  0  0  0  0  0  0  0  0  0  0  0
  -51.1758   -6.3817   76.0057 C   0  0  0  0  0  0  0  0  0  0  0  0
  -51.3242   -7.5252   76.7446 O   0  0  0  0  0  0  0  0  0  0  0  0
  -53.3120   -4.1087   73.8194 C   0  0  0  0  0  0  0  0  0  0  0  0
  -53.1397   -2.7045   73.4069 N   0  0  0  0  0  0  0  0  0  0  0  0
  -54.2470   -2.2875   72.5499 C   0  0  0  0  0  0  0  0  0  0  0  0
  -51.8522   -2.5422   72.7174 C   0  0  0  0  0  0  0  0  0  0  0  0
  -50.6882   -2.7948   73.6853 C   0  0  0  0  0  0  0  0  0  0  0  0
  -52.2402   -7.8323   76.6706 H   0  0  0  0  0  0  0  0  0  0  0  0
  -48.1001   -5.4688   77.4073 C   0  0  0  0  0  0  0  0  0  0  0  0
  -48.8942   -6.3587   76.6314 O   0  0  0  0  0  0  0  0  0  0  0  0
 14 15  1  0  0  0
 15  1  1  0  0  0
  1  2  2  0  0  0
  2  3  1  0  0  0
  3  4  2  0  0  0
  4  5  1  0  0  0
  5  6  2  0  0  0
  1  6  1  0  0  0
  6  7  1  0  0  0
  4  8  1  0  0  0
  8  9  1  0  0  0
  9 10  1  0  0  0
  9 11  1  0  0  0
 11 12  1  0  0  0
  3 12  1  0  0  0
  7 13  1  0  0  0
M  END
> <minimizedAffinity>
-5.53930

$$$$
ligand_7


 15 16  0  0  0  0  0  0  0  0999 V2000
  -51.4049   -4.8470   75.0057 C   0  0  0  0  0  0  0  0  0  0  0  0
  -50.2693   -4.1782   74.5424 C   0  0  0  0  0  0  0  0  0  0  0  0
  -50.3572   -3.2972   73.4523 C   0  0  0  0  0  0  0  0  0  0  0  0
  -51.5976   -3.0684   72.8308 C   0  0  0  0  0  0  0  0  0  0  0  0
  -52.7287   -3.7672   73.2784 C   0  0  0  0  0  0  0  0  0  0  0  0
  -52.6257   -4.6508   74.3534 C   0  0  0  0  0  0  0  0  0  0  0  0
  -53.7341   -5.3253   74.7919 O   0  0  0  0  0  0  0  0  0  0  0  0
  -51.7108   -2.1408   71.6382 C   0  0  0  0  0  0  0  0  0  0  0  0
  -50.5863   -1.1958   71.5186 N   0  0  0  0  0  0  0  0  0  0  0  0
  -50.6838   -0.4462   70.2683 C   0  0  0  0  0  0  0  0  0  0  0  0
  -49.3127   -1.9247   71.5957 C   0  0  0  0  0  0  0  0  0  0  0  0
  -49.1332   -2.5478   72.9868 C   0  0  0  0  0  0  0  0  0  0  0  0
  -54.4895   -5.0881   74.2334 H   0  0  0  0  0  0  0  0  0  0  0  0
  -50.1834   -6.5019   76.1448 C   0  0  0  0  0  0  0  0  0  0  0  0
  -51.3813   -5.7404   76.0451 O   0  0  0  0  0  0  0  0  0  0  0  0
 14 15  1  0  0  0
 15  1  1  0  0  0
  1  2  2  0  0  0
  2  3  1  0  0  0
  3  4  2  0  0  0
  4  5  1  0  0  0
  5  6  2  0  0  0
  1  6  1  0  0  0
  6  7  1  0  0  0
  4  8  1  0  0  0
  8  9  1  0  0  0
  9 10  1  0  0  0
  9 11  1  0  0  0
 11 12  1  0  0  0
  3 12  1  0  0  0
  7 13  1  0  0  0
M  END
> <minimizedAffinity>
-5.44796

$$$$
