ligand_43


 12 11  0  0  0  0  0  0  0  0999 V2000
  -47.7784   -2.8582   80.8227 C   0  0  0  0  0  0  0  0  0  0  0  0
  -46.5110   -3.5117   80.2181 C   0  0  0  0  0  0  0  0  0  0  0  0
  -45.2104   -2.7468   80.4142 C   0  0  0  0  0  0  0  0  0  0  0  0
  -49.1163   -3.4193   80.2880 C   0  0  0  0  0  0  0  0  0  0  0  0
  -49.1838   -4.9427   80.1721 C   0  0  0  0  0  0  0  0  0  0  0  0
  -49.5008   -4.2036   77.7899 C   0  0  0  0  0  0  0  0  0  0  0  0
  -49.3470   -5.3978   78.7206 C   0  0  0  0  0  0  0  0  0  0  0  0
  -47.7449   -1.3375   80.5326 C   0  0  0  0  0  0  0  0  0  0  0  0
  -47.8624   -0.6115   81.7706 O   0  0  0  0  0  0  0  0  0  0  0  0
  -47.0934    0.4575   82.0775 C   0  0  0  0  0  0  0  0  0  0  0  0
  -46.9351    1.5548   81.0639 C   0  0  0  0  0  0  0  0  0  0  0  0
  -46.5535    0.5418   83.1766 O   0  0  0  0  0  0  0  0  0  0  0  0
  6  7  1  0  0  0
  7  5  1  0  0  0
  5  4  1  0  0  0
  4  1  1  0  0  0
  1  2  1  0  0  0
  2  3  1  0  0  0
  1  8  1  0  0  0
  8  9  1  0  0  0
  9 10  1  0  0  0
 10 11  1  0  0  0
 10 12  2  0  0  0
M  END
> <minimizedAffinity>
-5.18459

$$$$
ligand_43


 12 11  0  0  0  0  0  0  0  0999 V2000
  -49.0014   -5.0383   79.7220 C   0  0  0  0  0  0  0  0  0  0  0  0
  -49.3749   -5.5205   78.2983 C   0  0  0  0  0  0  0  0  0  0  0  0
  -48.3835   -5.1737   77.1974 C   0  0  0  0  0  0  0  0  0  0  0  0
  -49.8945   -5.5993   80.8526 C   0  0  0  0  0  0  0  0  0  0  0  0
  -50.6688   -6.8703   80.5010 C   0  0  0  0  0  0  0  0  0  0  0  0
  -51.5069   -9.0951   81.3192 C   0  0  0  0  0  0  0  0  0  0  0  0
  -50.8634   -7.7752   81.7192 C   0  0  0  0  0  0  0  0  0  0  0  0
  -49.0856   -3.4926   79.7654 C   0  0  0  0  0  0  0  0  0  0  0  0
  -48.7529   -3.0324   81.0888 O   0  0  0  0  0  0  0  0  0  0  0  0
  -47.5994   -2.3904   81.3808 C   0  0  0  0  0  0  0  0  0  0  0  0
  -46.4574   -2.4674   80.4080 C   0  0  0  0  0  0  0  0  0  0  0  0
  -47.4955   -1.7341   82.4129 O   0  0  0  0  0  0  0  0  0  0  0  0
  6  7  1  0  0  0
  7  5  1  0  0  0
  5  4  1  0  0  0
  4  1  1  0  0  0
  1  2  1  0  0  0
  2  3  1  0  0  0
  1  8  1  0  0  0
  8  9  1  0  0  0
  9 10  1  0  0  0
 10 11  1  0  0  0
 10 12  2  0  0  0
M  END
> <minimizedAffinity>
-5.00645

$$$$
ligand_43


 12 11  0  0  0  0  0  0  0  0999 V2000
  -49.1735   -3.9610   80.3980 C   0  0  0  0  0  0  0  0  0  0  0  0
  -49.0484   -5.4411   80.8364 C   0  0  0  0  0  0  0  0  0  0  0  0
  -50.3488   -6.2287   80.8978 C   0  0  0  0  0  0  0  0  0  0  0  0
  -49.1717   -3.7344   78.8685 C   0  0  0  0  0  0  0  0  0  0  0  0
  -48.4117   -4.7835   78.0557 C   0  0  0  0  0  0  0  0  0  0  0  0
  -50.2286   -4.6852   76.3206 C   0  0  0  0  0  0  0  0  0  0  0  0
  -49.3466   -5.5983   77.1597 C   0  0  0  0  0  0  0  0  0  0  0  0
  -47.9965   -3.1577   81.0041 C   0  0  0  0  0  0  0  0  0  0  0  0
  -48.2612   -1.7483   80.8729 O   0  0  0  0  0  0  0  0  0  0  0  0
  -47.3149   -0.7983   81.0463 C   0  0  0  0  0  0  0  0  0  0  0  0
  -47.6377    0.6243   80.6878 C   0  0  0  0  0  0  0  0  0  0  0  0
  -46.2177   -1.0896   81.5131 O   0  0  0  0  0  0  0  0  0  0  0  0
  6  7  1  0  0  0
  7  5  1  0  0  0
  5  4  1  0  0  0
  4  1  1  0  0  0
  1  2  1  0  0  0
  2  3  1  0  0  0
  1  8  1  0  0  0
  8  9  1  0  0  0
  9 10  1  0  0  0
 10 11  1  0  0  0
 10 12  2  0  0  0
M  END
> <minimizedAffinity>
-4.96194

$$$$
ligand_43


 12 11  0  0  0  0  0  0  0  0999 V2000
  -47.8473    1.3926   81.7822 C   0  0  0  0  0  0  0  0  0  0  0  0
  -46.7695    1.7948   80.7453 C   0  0  0  0  0  0  0  0  0  0  0  0
  -47.2447    1.9153   79.3048 C   0  0  0  0  0  0  0  0  0  0  0  0
  -48.1705    2.4766   82.8364 C   0  0  0  0  0  0  0  0  0  0  0  0
  -48.1722    3.9136   82.3135 C   0  0  0  0  0  0  0  0  0  0  0  0
  -46.8424    6.0463   82.2435 C   0  0  0  0  0  0  0  0  0  0  0  0
  -46.7714    4.5286   82.3305 C   0  0  0  0  0  0  0  0  0  0  0  0
  -47.3740    0.1216   82.5296 C   0  0  0  0  0  0  0  0  0  0  0  0
  -47.6373   -1.0374   81.7166 O   0  0  0  0  0  0  0  0  0  0  0  0
  -46.6641   -1.7464   81.1014 C   0  0  0  0  0  0  0  0  0  0  0  0
  -47.0528   -2.8408   80.1487 C   0  0  0  0  0  0  0  0  0  0  0  0
  -45.4816   -1.4831   81.2990 O   0  0  0  0  0  0  0  0  0  0  0  0
  6  7  1  0  0  0
  7  5  1  0  0  0
  5  4  1  0  0  0
  4  1  1  0  0  0
  1  2  1  0  0  0
  2  3  1  0  0  0
  1  8  1  0  0  0
  8  9  1  0  0  0
  9 10  1  0  0  0
 10 11  1  0  0  0
 10 12  2  0  0  0
M  END
> <minimizedAffinity>
-4.71025

$$$$
ligand_43


 12 11  0  0  0  0  0  0  0  0999 V2000
  -50.9551   -6.7782   81.1564 C   0  0  0  0  0  0  0  0  0  0  0  0
  -51.1655   -8.0343   80.2751 C   0  0  0  0  0  0  0  0  0  0  0  0
  -51.0798   -7.8139   78.7720 C   0  0  0  0  0  0  0  0  0  0  0  0
  -49.5545   -6.1330   81.0435 C   0  0  0  0  0  0  0  0  0  0  0  0
  -49.5460   -4.6670   80.6084 C   0  0  0  0  0  0  0  0  0  0  0  0
  -48.6481   -4.9933   78.2827 C   0  0  0  0  0  0  0  0  0  0  0  0
  -48.3963   -4.3643   79.6454 C   0  0  0  0  0  0  0  0  0  0  0  0
  -51.1897   -7.1611   82.6384 C   0  0  0  0  0  0  0  0  0  0  0  0
  -52.1883   -8.1959   82.7129 O   0  0  0  0  0  0  0  0  0  0  0  0
  -53.0423   -8.3266   83.7530 C   0  0  0  0  0  0  0  0  0  0  0  0
  -52.5905   -7.9067   85.1227 C   0  0  0  0  0  0  0  0  0  0  0  0
  -54.1779   -8.7580   83.5765 O   0  0  0  0  0  0  0  0  0  0  0  0
  6  7  1  0  0  0
  7  5  1  0  0  0
  5  4  1  0  0  0
  4  1  1  0  0  0
  1  2  1  0  0  0
  2  3  1  0  0  0
  1  8  1  0  0  0
  8  9  1  0  0  0
  9 10  1  0  0  0
 10 11  1  0  0  0
 10 12  2  0  0  0
M  END
> <minimizedAffinity>
-4.70116

$$$$
