ligand_33


 24 26  0  0  0  0  0  0  0  0999 V2000
  -56.4899   -2.0626   70.3470 C   0  0  0  0  0  0  0  0  0  0  0  0
  -55.2885   -2.1131   71.1582 N   0  0  0  0  0  0  0  0  0  0  0  0
  -55.1944   -2.8901   72.2983 C   0  0  0  0  0  0  0  0  0  0  0  0
  -55.9923   -3.7407   72.6540 O   0  0  0  0  0  0  0  0  0  0  0  0
  -54.0161   -2.3942   73.1362 C   0  0  0  0  0  0  0  0  0  0  0  0
  -54.4547   -1.7040   74.3068 O   0  0  0  0  0  0  0  0  0  0  0  0
  -53.2500   -1.4183   72.2169 C   0  0  0  0  0  0  0  0  0  0  0  0
  -54.2483   -1.0947   71.0757 C   0  0  0  0  0  0  0  0  0  0  0  0
  -55.4178   -1.5762   74.2281 H   0  0  0  0  0  0  0  0  0  0  0  0
  -51.8375   -1.8593   71.8792 C   0  0  0  0  0  0  0  0  0  0  0  0
  -50.8213   -0.9680   71.5088 C   0  0  0  0  0  0  0  0  0  0  0  0
  -49.5463   -1.4332   71.1737 C   0  0  0  0  0  0  0  0  0  0  0  0
  -49.2721   -2.7978   71.1817 C   0  0  0  0  0  0  0  0  0  0  0  0
  -50.2705   -3.6995   71.5338 C   0  0  0  0  0  0  0  0  0  0  0  0
  -51.5390   -3.2342   71.8856 C   0  0  0  0  0  0  0  0  0  0  0  0
  -53.6862   -0.7636   69.6613 C   0  0  0  0  0  0  0  0  0  0  0  0
  -54.5512    0.2321   69.0730 O   0  0  0  0  0  0  0  0  0  0  0  0
  -54.8270   -0.0938   68.1981 H   0  0  0  0  0  0  0  0  0  0  0  0
  -53.4350   -1.8367   68.6147 C   0  0  0  0  0  0  0  0  0  0  0  0
  -54.4301   -2.4332   67.8319 C   0  0  0  0  0  0  0  0  0  0  0  0
  -54.1179   -3.4389   66.9110 C   0  0  0  0  0  0  0  0  0  0  0  0
  -52.7973   -3.8335   66.7227 C   0  0  0  0  0  0  0  0  0  0  0  0
  -51.7849   -3.2173   67.4494 C   0  0  0  0  0  0  0  0  0  0  0  0
  -52.1014   -2.2321   68.3870 C   0  0  0  0  0  0  0  0  0  0  0  0
  1  2  1  0  0  0
  2  3  1  0  0  0
  3  4  2  0  0  0
  3  5  1  0  0  0
  5  6  1  0  0  0
  5  7  1  0  0  0
 10 11  2  0  0  0
 11 12  1  0  0  0
 12 13  2  0  0  0
 13 14  1  0  0  0
 14 15  2  0  0  0
 10 15  1  0  0  0
  7  8  1  0  0  0
  2  8  1  0  0  0
 16 19  1  0  0  0
 19 20  2  0  0  0
 20 21  1  0  0  0
 21 22  2  0  0  0
 22 23  1  0  0  0
 23 24  2  0  0  0
 19 24  1  0  0  0
  7 10  1  0  0  0
 16 17  1  0  0  0
 16  8  1  0  0  0
  6  9  1  0  0  0
 17 18  1  0  0  0
M  END
> <minimizedAffinity>
-7.18360

$$$$
ligand_33


 24 26  0  0  0  0  0  0  0  0999 V2000
  -50.9845   -2.8525   68.4666 C   0  0  0  0  0  0  0  0  0  0  0  0
  -52.2691   -2.5659   69.0761 N   0  0  0  0  0  0  0  0  0  0  0  0
  -53.4138   -3.2766   68.7648 C   0  0  0  0  0  0  0  0  0  0  0  0
  -53.4630   -4.3087   68.1175 O   0  0  0  0  0  0  0  0  0  0  0  0
  -54.6317   -2.4704   69.2154 C   0  0  0  0  0  0  0  0  0  0  0  0
  -55.3363   -1.9141   68.1050 O   0  0  0  0  0  0  0  0  0  0  0  0
  -54.0609   -1.3319   70.0887 C   0  0  0  0  0  0  0  0  0  0  0  0
  -52.5482   -1.3036   69.7504 C   0  0  0  0  0  0  0  0  0  0  0  0
  -54.7890   -2.0541   67.3107 H   0  0  0  0  0  0  0  0  0  0  0  0
  -54.5077   -1.3750   71.5386 C   0  0  0  0  0  0  0  0  0  0  0  0
  -54.7114   -0.2262   72.3151 C   0  0  0  0  0  0  0  0  0  0  0  0
  -55.0893   -0.3254   73.6574 C   0  0  0  0  0  0  0  0  0  0  0  0
  -55.2481   -1.5740   74.2516 C   0  0  0  0  0  0  0  0  0  0  0  0
  -55.0381   -2.7262   73.5018 C   0  0  0  0  0  0  0  0  0  0  0  0
  -54.6779   -2.6274   72.1564 C   0  0  0  0  0  0  0  0  0  0  0  0
  -51.5441   -0.8460   70.8497 C   0  0  0  0  0  0  0  0  0  0  0  0
  -50.6300    0.0908   70.2394 O   0  0  0  0  0  0  0  0  0  0  0  0
  -49.7243   -0.2139   70.4254 H   0  0  0  0  0  0  0  0  0  0  0  0
  -50.7226   -1.8335   71.6622 C   0  0  0  0  0  0  0  0  0  0  0  0
  -51.2524   -2.7278   72.5995 C   0  0  0  0  0  0  0  0  0  0  0  0
  -50.4215   -3.5839   73.3300 C   0  0  0  0  0  0  0  0  0  0  0  0
  -49.0492   -3.5940   73.1024 C   0  0  0  0  0  0  0  0  0  0  0  0
  -48.5057   -2.7534   72.1375 C   0  0  0  0  0  0  0  0  0  0  0  0
  -49.3335   -1.8809   71.4280 C   0  0  0  0  0  0  0  0  0  0  0  0
  1  2  1  0  0  0
  2  3  1  0  0  0
  3  4  2  0  0  0
  3  5  1  0  0  0
  5  6  1  0  0  0
  5  7  1  0  0  0
 10 11  2  0  0  0
 11 12  1  0  0  0
 12 13  2  0  0  0
 13 14  1  0  0  0
 14 15  2  0  0  0
 10 15  1  0  0  0
  7  8  1  0  0  0
  2  8  1  0  0  0
 16 19  1  0  0  0
 19 20  2  0  0  0
 20 21  1  0  0  0
 21 22  2  0  0  0
 22 23  1  0  0  0
 23 24  2  0  0  0
 19 24  1  0  0  0
  7 10  1  0  0  0
 16 17  1  0  0  0
 16  8  1  0  0  0
  6  9  1  0  0  0
 17 18  1  0  0  0
M  END
> <minimizedAffinity>
-7.04997

$$$$
ligand_33


 24 26  0  0  0  0  0  0  0  0999 V2000
  -55.3405   -3.8844   73.6565 C   0  0  0  0  0  0  0  0  0  0  0  0
  -54.0075   -3.4925   73.2400 N   0  0  0  0  0  0  0  0  0  0  0  0
  -52.8735   -4.1747   73.6411 C   0  0  0  0  0  0  0  0  0  0  0  0
  -52.8491   -5.2529   74.2099 O   0  0  0  0  0  0  0  0  0  0  0  0
  -51.6547   -3.2813   73.4122 C   0  0  0  0  0  0  0  0  0  0  0  0
  -51.1247   -2.7865   74.6423 O   0  0  0  0  0  0  0  0  0  0  0  0
  -52.1734   -2.1019   72.5610 C   0  0  0  0  0  0  0  0  0  0  0  0
  -53.7158   -2.1684   72.7038 C   0  0  0  0  0  0  0  0  0  0  0  0
  -51.7580   -3.0149   75.3472 H   0  0  0  0  0  0  0  0  0  0  0  0
  -51.5483   -2.0069   71.1811 C   0  0  0  0  0  0  0  0  0  0  0  0
  -51.5970   -3.0456   70.2416 C   0  0  0  0  0  0  0  0  0  0  0  0
  -50.9729   -2.9170   68.9972 C   0  0  0  0  0  0  0  0  0  0  0  0
  -50.2714   -1.7574   68.6800 C   0  0  0  0  0  0  0  0  0  0  0  0
  -50.2004   -0.7202   69.6036 C   0  0  0  0  0  0  0  0  0  0  0  0
  -50.8385   -0.8412   70.8396 C   0  0  0  0  0  0  0  0  0  0  0  0
  -54.5989   -1.6678   71.5224 C   0  0  0  0  0  0  0  0  0  0  0  0
  -54.7499   -2.7668   70.5978 O   0  0  0  0  0  0  0  0  0  0  0  0
  -54.4918   -2.4493   69.7145 H   0  0  0  0  0  0  0  0  0  0  0  0
  -54.2508   -0.4274   70.7160 C   0  0  0  0  0  0  0  0  0  0  0  0
  -53.9901    0.8326   71.2668 C   0  0  0  0  0  0  0  0  0  0  0  0
  -53.7076    1.9328   70.4503 C   0  0  0  0  0  0  0  0  0  0  0  0
  -53.6345    1.7822   69.0693 C   0  0  0  0  0  0  0  0  0  0  0  0
  -53.8358    0.5288   68.5023 C   0  0  0  0  0  0  0  0  0  0  0  0
  -54.1435   -0.5627   69.3171 C   0  0  0  0  0  0  0  0  0  0  0  0
  1  2  1  0  0  0
  2  3  1  0  0  0
  3  4  2  0  0  0
  3  5  1  0  0  0
  5  6  1  0  0  0
  5  7  1  0  0  0
 10 11  2  0  0  0
 11 12  1  0  0  0
 12 13  2  0  0  0
 13 14  1  0  0  0
 14 15  2  0  0  0
 10 15  1  0  0  0
  7  8  1  0  0  0
  2  8  1  0  0  0
 16 19  1  0  0  0
 19 20  2  0  0  0
 20 21  1  0  0  0
 21 22  2  0  0  0
 22 23  1  0  0  0
 23 24  2  0  0  0
 19 24  1  0  0  0
  7 10  1  0  0  0
 16 17  1  0  0  0
 16  8  1  0  0  0
  6  9  1  0  0  0
 17 18  1  0  0  0
M  END
> <minimizedAffinity>
-6.98768

$$$$
ligand_33


 24 26  0  0  0  0  0  0  0  0999 V2000
  -54.5300   -2.3848   74.0766 C   0  0  0  0  0  0  0  0  0  0  0  0
  -54.3298   -1.7007   72.8133 N   0  0  0  0  0  0  0  0  0  0  0  0
  -54.7099   -0.3864   72.6121 C   0  0  0  0  0  0  0  0  0  0  0  0
  -55.0688    0.3963   73.4754 O   0  0  0  0  0  0  0  0  0  0  0  0
  -54.7744   -0.1172   71.1089 C   0  0  0  0  0  0  0  0  0  0  0  0
  -56.1220   -0.0011   70.6511 O   0  0  0  0  0  0  0  0  0  0  0  0
  -54.1084   -1.3449   70.4504 C   0  0  0  0  0  0  0  0  0  0  0  0
  -54.0802   -2.4183   71.5688 C   0  0  0  0  0  0  0  0  0  0  0  0
  -56.7049   -0.2701   71.3845 H   0  0  0  0  0  0  0  0  0  0  0  0
  -52.8402   -1.0272   69.6794 C   0  0  0  0  0  0  0  0  0  0  0  0
  -52.4852   -1.6687   68.4851 C   0  0  0  0  0  0  0  0  0  0  0  0
  -51.2864   -1.3613   67.8347 C   0  0  0  0  0  0  0  0  0  0  0  0
  -50.4127   -0.4242   68.3786 C   0  0  0  0  0  0  0  0  0  0  0  0
  -50.7406    0.2141   69.5698 C   0  0  0  0  0  0  0  0  0  0  0  0
  -51.9460   -0.0798   70.2104 C   0  0  0  0  0  0  0  0  0  0  0  0
  -52.9291   -3.4675   71.5700 C   0  0  0  0  0  0  0  0  0  0  0  0
  -53.3411   -4.5625   72.4167 O   0  0  0  0  0  0  0  0  0  0  0  0
  -52.6349   -4.7156   73.0690 H   0  0  0  0  0  0  0  0  0  0  0  0
  -51.5002   -3.1062   71.9413 C   0  0  0  0  0  0  0  0  0  0  0  0
  -51.0965   -2.6502   73.2014 C   0  0  0  0  0  0  0  0  0  0  0  0
  -49.7635   -2.3082   73.4522 C   0  0  0  0  0  0  0  0  0  0  0  0
  -48.8005   -2.4610   72.4600 C   0  0  0  0  0  0  0  0  0  0  0  0
  -49.1675   -2.9639   71.2168 C   0  0  0  0  0  0  0  0  0  0  0  0
  -50.5032   -3.2798   70.9602 C   0  0  0  0  0  0  0  0  0  0  0  0
  1  2  1  0  0  0
  2  3  1  0  0  0
  3  4  2  0  0  0
  3  5  1  0  0  0
  5  6  1  0  0  0
  5  7  1  0  0  0
 10 11  2  0  0  0
 11 12  1  0  0  0
 12 13  2  0  0  0
 13 14  1  0  0  0
 14 15  2  0  0  0
 10 15  1  0  0  0
  7  8  1  0  0  0
  2  8  1  0  0  0
 16 19  1  0  0  0
 19 20  2  0  0  0
 20 21  1  0  0  0
 21 22  2  0  0  0
 22 23  1  0  0  0
 23 24  2  0  0  0
 19 24  1  0  0  0
  7 10  1  0  0  0
 16 17  1  0  0  0
 16  8  1  0  0  0
  6  9  1  0  0  0
 17 18  1  0  0  0
M  END
> <minimizedAffinity>
-6.90073

$$$$
ligand_33


 24 26  0  0  0  0  0  0  0  0999 V2000
  -49.2216   -3.3130   72.2099 C   0  0  0  0  0  0  0  0  0  0  0  0
  -50.6504   -3.1972   72.4310 N   0  0  0  0  0  0  0  0  0  0  0  0
  -51.2140   -3.2580   73.6924 C   0  0  0  0  0  0  0  0  0  0  0  0
  -50.6087   -3.2252   74.7504 O   0  0  0  0  0  0  0  0  0  0  0  0
  -52.7082   -3.5469   73.5506 C   0  0  0  0  0  0  0  0  0  0  0  0
  -53.0270   -4.8821   73.9439 O   0  0  0  0  0  0  0  0  0  0  0  0
  -53.0136   -3.3634   72.0481 C   0  0  0  0  0  0  0  0  0  0  0  0
  -51.6232   -3.3921   71.3626 C   0  0  0  0  0  0  0  0  0  0  0  0
  -52.1863   -5.3577   74.0748 H   0  0  0  0  0  0  0  0  0  0  0  0
  -53.9809   -2.2345   71.7422 C   0  0  0  0  0  0  0  0  0  0  0  0
  -53.7681   -0.9091   72.1445 C   0  0  0  0  0  0  0  0  0  0  0  0
  -54.7105    0.0852   71.8658 C   0  0  0  0  0  0  0  0  0  0  0  0
  -55.8909   -0.2329   71.2003 C   0  0  0  0  0  0  0  0  0  0  0  0
  -56.1269   -1.5448   70.8041 C   0  0  0  0  0  0  0  0  0  0  0  0
  -55.1779   -2.5347   71.0665 C   0  0  0  0  0  0  0  0  0  0  0  0
  -51.4174   -2.5732   70.0537 C   0  0  0  0  0  0  0  0  0  0  0  0
  -51.1112   -1.2146   70.4357 O   0  0  0  0  0  0  0  0  0  0  0  0
  -51.7262   -0.6272   69.9619 H   0  0  0  0  0  0  0  0  0  0  0  0
  -52.4653   -2.5212   68.9541 C   0  0  0  0  0  0  0  0  0  0  0  0
  -53.0065   -1.3435   68.4259 C   0  0  0  0  0  0  0  0  0  0  0  0
  -53.9928   -1.3837   67.4346 C   0  0  0  0  0  0  0  0  0  0  0  0
  -54.4222   -2.6027   66.9199 C   0  0  0  0  0  0  0  0  0  0  0  0
  -53.8600   -3.7841   67.3900 C   0  0  0  0  0  0  0  0  0  0  0  0
  -52.8946   -3.7431   68.3981 C   0  0  0  0  0  0  0  0  0  0  0  0
  1  2  1  0  0  0
  2  3  1  0  0  0
  3  4  2  0  0  0
  3  5  1  0  0  0
  5  6  1  0  0  0
  5  7  1  0  0  0
 10 11  2  0  0  0
 11 12  1  0  0  0
 12 13  2  0  0  0
 13 14  1  0  0  0
 14 15  2  0  0  0
 10 15  1  0  0  0
  7  8  1  0  0  0
  2  8  1  0  0  0
 16 19  1  0  0  0
 19 20  2  0  0  0
 20 21  1  0  0  0
 21 22  2  0  0  0
 22 23  1  0  0  0
 23 24  2  0  0  0
 19 24  1  0  0  0
  7 10  1  0  0  0
 16 17  1  0  0  0
 16  8  1  0  0  0
  6  9  1  0  0  0
 17 18  1  0  0  0
M  END
> <minimizedAffinity>
-6.78140

$$$$
