ligand_10


 22 23  0  0  0  0  0  0  0  0999 V2000
  -48.9577   -4.9476   78.5239 C   0  0  0  0  0  0  0  0  0  0  0  0
  -46.8548   -1.9269   80.8543 C   0  0  0  0  0  0  0  0  0  0  0  0
  -46.1879   -2.8001   79.9969 C   0  0  0  0  0  0  0  0  0  0  0  0
  -46.8965   -3.7503   79.2536 C   0  0  0  0  0  0  0  0  0  0  0  0
  -48.2949   -3.8591   79.3510 C   0  0  0  0  0  0  0  0  0  0  0  0
  -48.9411   -2.9848   80.2322 C   0  0  0  0  0  0  0  0  0  0  0  0
  -50.2929   -3.0521   80.4190 O   0  0  0  0  0  0  0  0  0  0  0  0
  -48.2392   -2.0187   80.9653 C   0  0  0  0  0  0  0  0  0  0  0  0
  -50.4615   -2.9111   81.3663 H   0  0  0  0  0  0  0  0  0  0  0  0
  -46.6046    0.2319   81.8198 C   0  0  0  0  0  0  0  0  0  0  0  0
  -46.0513   -1.0442   81.5213 O   0  0  0  0  0  0  0  0  0  0  0  0
  -48.1029   -5.6587   77.4777 C   0  0  0  0  0  0  0  0  0  0  0  0
  -48.5003   -5.3323   76.0529 C   0  0  0  0  0  0  0  0  0  0  0  0
  -47.6909   -5.1711   75.1435 O   0  0  0  0  0  0  0  0  0  0  0  0
  -49.9602   -5.2905   75.7571 C   0  0  0  0  0  0  0  0  0  0  0  0
  -50.7805   -6.4090   75.9603 C   0  0  0  0  0  0  0  0  0  0  0  0
  -52.1365   -6.3542   75.6271 C   0  0  0  0  0  0  0  0  0  0  0  0
  -52.6611   -5.1845   75.0865 C   0  0  0  0  0  0  0  0  0  0  0  0
  -53.9739   -5.0953   74.7317 O   0  0  0  0  0  0  0  0  0  0  0  0
  -51.8585   -4.0657   74.8892 C   0  0  0  0  0  0  0  0  0  0  0  0
  -50.5060   -4.1135   75.2326 C   0  0  0  0  0  0  0  0  0  0  0  0
  -54.4117   -5.9389   74.9322 H   0  0  0  0  0  0  0  0  0  0  0  0
 10 11  1  0  0  0
 11  2  1  0  0  0
  2  3  2  0  0  0
  3  4  1  0  0  0
  4  5  2  0  0  0
  5  1  1  0  0  0
  1 12  1  0  0  0
 12 13  1  0  0  0
 13 14  2  0  0  0
 13 15  1  0  0  0
 15 16  2  0  0  0
 16 17  1  0  0  0
 17 18  2  0  0  0
 18 19  1  0  0  0
 18 20  1  0  0  0
 20 21  2  0  0  0
 15 21  1  0  0  0
  5  6  1  0  0  0
  6  7  1  0  0  0
  6  8  2  0  0  0
  2  8  1  0  0  0
 19 22  1  0  0  0
  7  9  1  0  0  0
M  END
> <minimizedAffinity>
-7.96457

$$$$
ligand_10


 22 23  0  0  0  0  0  0  0  0999 V2000
  -47.1636   -1.8400   80.4066 C   0  0  0  0  0  0  0  0  0  0  0  0
  -47.6029    2.0890   82.2361 C   0  0  0  0  0  0  0  0  0  0  0  0
  -47.4133    1.9257   80.8651 C   0  0  0  0  0  0  0  0  0  0  0  0
  -47.2886    0.6479   80.3092 C   0  0  0  0  0  0  0  0  0  0  0  0
  -47.3437   -0.5059   81.1109 C   0  0  0  0  0  0  0  0  0  0  0  0
  -47.5156   -0.3169   82.4868 C   0  0  0  0  0  0  0  0  0  0  0  0
  -47.5369   -1.3820   83.3422 O   0  0  0  0  0  0  0  0  0  0  0  0
  -47.6598    0.9593   83.0471 C   0  0  0  0  0  0  0  0  0  0  0  0
  -47.0504   -1.1203   84.1425 H   0  0  0  0  0  0  0  0  0  0  0  0
  -46.9527    4.3582   81.9477 C   0  0  0  0  0  0  0  0  0  0  0  0
  -47.7132    3.3861   82.6549 O   0  0  0  0  0  0  0  0  0  0  0  0
  -48.4110   -2.6883   80.1710 C   0  0  0  0  0  0  0  0  0  0  0  0
  -48.1377   -3.9560   79.3884 C   0  0  0  0  0  0  0  0  0  0  0  0
  -47.1364   -4.1235   78.6974 O   0  0  0  0  0  0  0  0  0  0  0  0
  -49.1160   -5.0682   79.5511 C   0  0  0  0  0  0  0  0  0  0  0  0
  -49.5523   -5.4798   80.8182 C   0  0  0  0  0  0  0  0  0  0  0  0
  -50.4325   -6.5581   80.9410 C   0  0  0  0  0  0  0  0  0  0  0  0
  -50.8645   -7.2218   79.7971 C   0  0  0  0  0  0  0  0  0  0  0  0
  -51.7087   -8.2889   79.8742 O   0  0  0  0  0  0  0  0  0  0  0  0
  -50.4454   -6.8163   78.5343 C   0  0  0  0  0  0  0  0  0  0  0  0
  -49.5756   -5.7315   78.4078 C   0  0  0  0  0  0  0  0  0  0  0  0
  -51.9240   -8.4528   80.8071 H   0  0  0  0  0  0  0  0  0  0  0  0
 10 11  1  0  0  0
 11  2  1  0  0  0
  2  3  2  0  0  0
  3  4  1  0  0  0
  4  5  2  0  0  0
  5  1  1  0  0  0
  1 12  1  0  0  0
 12 13  1  0  0  0
 13 14  2  0  0  0
 13 15  1  0  0  0
 15 16  2  0  0  0
 16 17  1  0  0  0
 17 18  2  0  0  0
 18 19  1  0  0  0
 18 20  1  0  0  0
 20 21  2  0  0  0
 15 21  1  0  0  0
  5  6  1  0  0  0
  6  7  1  0  0  0
  6  8  2  0  0  0
  2  8  1  0  0  0
 19 22  1  0  0  0
  7  9  1  0  0  0
M  END
> <minimizedAffinity>
-7.88820

$$$$
ligand_10


 22 23  0  0  0  0  0  0  0  0999 V2000
  -49.2305   -5.0871   78.5968 C   0  0  0  0  0  0  0  0  0  0  0  0
  -46.8776   -2.0958   80.7166 C   0  0  0  0  0  0  0  0  0  0  0  0
  -46.3009   -2.9984   79.8250 C   0  0  0  0  0  0  0  0  0  0  0  0
  -47.0888   -3.9382   79.1514 C   0  0  0  0  0  0  0  0  0  0  0  0
  -48.4783   -4.0067   79.3551 C   0  0  0  0  0  0  0  0  0  0  0  0
  -49.0325   -3.1032   80.2689 C   0  0  0  0  0  0  0  0  0  0  0  0
  -50.3677   -3.1303   80.5577 O   0  0  0  0  0  0  0  0  0  0  0  0
  -48.2516   -2.1476   80.9325 C   0  0  0  0  0  0  0  0  0  0  0  0
  -50.4605   -2.9723   81.5126 H   0  0  0  0  0  0  0  0  0  0  0  0
  -46.5230    0.0317   81.7183 C   0  0  0  0  0  0  0  0  0  0  0  0
  -46.0027   -1.2271   81.3080 O   0  0  0  0  0  0  0  0  0  0  0  0
  -48.5913   -5.6294   77.3207 C   0  0  0  0  0  0  0  0  0  0  0  0
  -49.5894   -6.2467   76.3631 C   0  0  0  0  0  0  0  0  0  0  0  0
  -49.7450   -7.4581   76.2340 O   0  0  0  0  0  0  0  0  0  0  0  0
  -50.4676   -5.3061   75.6117 C   0  0  0  0  0  0  0  0  0  0  0  0
  -49.9624   -4.1274   75.0454 C   0  0  0  0  0  0  0  0  0  0  0  0
  -50.8202   -3.2409   74.3890 C   0  0  0  0  0  0  0  0  0  0  0  0
  -52.1777   -3.5352   74.3097 C   0  0  0  0  0  0  0  0  0  0  0  0
  -53.0507   -2.6891   73.6940 O   0  0  0  0  0  0  0  0  0  0  0  0
  -52.6884   -4.7063   74.8599 C   0  0  0  0  0  0  0  0  0  0  0  0
  -51.8317   -5.5998   75.5056 C   0  0  0  0  0  0  0  0  0  0  0  0
  -52.5590   -1.9246   73.3515 H   0  0  0  0  0  0  0  0  0  0  0  0
 10 11  1  0  0  0
 11  2  1  0  0  0
  2  3  2  0  0  0
  3  4  1  0  0  0
  4  5  2  0  0  0
  5  1  1  0  0  0
  1 12  1  0  0  0
 12 13  1  0  0  0
 13 14  2  0  0  0
 13 15  1  0  0  0
 15 16  2  0  0  0
 16 17  1  0  0  0
 17 18  2  0  0  0
 18 19  1  0  0  0
 18 20  1  0  0  0
 20 21  2  0  0  0
 15 21  1  0  0  0
  5  6  1  0  0  0
  6  7  1  0  0  0
  6  8  2  0  0  0
  2  8  1  0  0  0
 19 22  1  0  0  0
  7  9  1  0  0  0
M  END
> <minimizedAffinity>
-7.74505

$$$$
ligand_10


 22 23  0  0  0  0  0  0  0  0999 V2000
  -50.4944   -1.0069   70.8382 C   0  0  0  0  0  0  0  0  0  0  0  0
  -52.2207   -4.0693   73.4109 C   0  0  0  0  0  0  0  0  0  0  0  0
  -52.7971   -3.7113   72.1936 C   0  0  0  0  0  0  0  0  0  0  0  0
  -52.2086   -2.7319   71.3861 C   0  0  0  0  0  0  0  0  0  0  0  0
  -51.0275   -2.0764   71.7763 C   0  0  0  0  0  0  0  0  0  0  0  0
  -50.4773   -2.4386   73.0110 C   0  0  0  0  0  0  0  0  0  0  0  0
  -49.3549   -1.8204   73.4852 O   0  0  0  0  0  0  0  0  0  0  0  0
  -51.0515   -3.4317   73.8155 C   0  0  0  0  0  0  0  0  0  0  0  0
  -49.4771   -1.6924   74.4414 H   0  0  0  0  0  0  0  0  0  0  0  0
  -52.2508   -5.5567   75.2662 C   0  0  0  0  0  0  0  0  0  0  0  0
  -52.8891   -5.0396   74.1048 O   0  0  0  0  0  0  0  0  0  0  0  0
  -49.9540   -1.4606   69.4843 C   0  0  0  0  0  0  0  0  0  0  0  0
  -50.6861   -0.8481   68.3082 C   0  0  0  0  0  0  0  0  0  0  0  0
  -50.2901    0.1467   67.7068 O   0  0  0  0  0  0  0  0  0  0  0  0
  -51.9047   -1.5614   67.8320 C   0  0  0  0  0  0  0  0  0  0  0  0
  -51.8292   -2.8419   67.2664 C   0  0  0  0  0  0  0  0  0  0  0  0
  -52.9832   -3.4649   66.7840 C   0  0  0  0  0  0  0  0  0  0  0  0
  -54.2031   -2.8007   66.8637 C   0  0  0  0  0  0  0  0  0  0  0  0
  -55.3489   -3.3654   66.3890 O   0  0  0  0  0  0  0  0  0  0  0  0
  -54.2913   -1.5338   67.4312 C   0  0  0  0  0  0  0  0  0  0  0  0
  -53.1418   -0.9140   67.9252 C   0  0  0  0  0  0  0  0  0  0  0  0
  -55.1418   -4.2451   66.0330 H   0  0  0  0  0  0  0  0  0  0  0  0
 10 11  1  0  0  0
 11  2  1  0  0  0
  2  3  2  0  0  0
  3  4  1  0  0  0
  4  5  2  0  0  0
  5  1  1  0  0  0
  1 12  1  0  0  0
 12 13  1  0  0  0
 13 14  2  0  0  0
 13 15  1  0  0  0
 15 16  2  0  0  0
 16 17  1  0  0  0
 17 18  2  0  0  0
 18 19  1  0  0  0
 18 20  1  0  0  0
 20 21  2  0  0  0
 15 21  1  0  0  0
  5  6  1  0  0  0
  6  7  1  0  0  0
  6  8  2  0  0  0
  2  8  1  0  0  0
 19 22  1  0  0  0
  7  9  1  0  0  0
M  END
> <minimizedAffinity>
-7.68141

$$$$
ligand_10


 22 23  0  0  0  0  0  0  0  0999 V2000
  -46.6218   -2.9951   80.5563 C   0  0  0  0  0  0  0  0  0  0  0  0
  -49.3828   -5.3805   78.1764 C   0  0  0  0  0  0  0  0  0  0  0  0
  -48.0714   -5.1389   77.7714 C   0  0  0  0  0  0  0  0  0  0  0  0
  -47.2075   -4.3785   78.5669 C   0  0  0  0  0  0  0  0  0  0  0  0
  -47.6328   -3.8313   79.7903 C   0  0  0  0  0  0  0  0  0  0  0  0
  -48.9590   -4.0710   80.1675 C   0  0  0  0  0  0  0  0  0  0  0  0
  -49.4656   -3.5400   81.3200 O   0  0  0  0  0  0  0  0  0  0  0  0
  -49.8235   -4.8472   79.3842 C   0  0  0  0  0  0  0  0  0  0  0  0
  -50.3756   -3.2538   81.1311 H   0  0  0  0  0  0  0  0  0  0  0  0
  -49.4474   -6.6803   76.1861 C   0  0  0  0  0  0  0  0  0  0  0  0
  -50.1247   -6.1389   77.3137 O   0  0  0  0  0  0  0  0  0  0  0  0
  -46.7823   -1.4774   80.5120 C   0  0  0  0  0  0  0  0  0  0  0  0
  -47.3053   -0.8894   81.8062 C   0  0  0  0  0  0  0  0  0  0  0  0
  -47.5508   -1.5603   82.8051 O   0  0  0  0  0  0  0  0  0  0  0  0
  -47.4422    0.5934   81.8617 C   0  0  0  0  0  0  0  0  0  0  0  0
  -46.7751    1.4246   80.9510 C   0  0  0  0  0  0  0  0  0  0  0  0
  -46.8841    2.8135   81.0591 C   0  0  0  0  0  0  0  0  0  0  0  0
  -47.6530    3.3617   82.0809 C   0  0  0  0  0  0  0  0  0  0  0  0
  -47.7710    4.7109   82.2320 O   0  0  0  0  0  0  0  0  0  0  0  0
  -48.3266    2.5464   82.9844 C   0  0  0  0  0  0  0  0  0  0  0  0
  -48.2295    1.1582   82.8714 C   0  0  0  0  0  0  0  0  0  0  0  0
  -47.2609    5.1515   81.5326 H   0  0  0  0  0  0  0  0  0  0  0  0
 10 11  1  0  0  0
 11  2  1  0  0  0
  2  3  2  0  0  0
  3  4  1  0  0  0
  4  5  2  0  0  0
  5  1  1  0  0  0
  1 12  1  0  0  0
 12 13  1  0  0  0
 13 14  2  0  0  0
 13 15  1  0  0  0
 15 16  2  0  0  0
 16 17  1  0  0  0
 17 18  2  0  0  0
 18 19  1  0  0  0
 18 20  1  0  0  0
 20 21  2  0  0  0
 15 21  1  0  0  0
  5  6  1  0  0  0
  6  7  1  0  0  0
  6  8  2  0  0  0
  2  8  1  0  0  0
 19 22  1  0  0  0
  7  9  1  0  0  0
M  END
> <minimizedAffinity>
-7.60900

$$$$
