ligand_26


 24 26  0  0  0  0  0  0  0  0999 V2000
  -51.4077   -4.6062   74.8065 C   0  0  0  0  0  0  0  0  0  0  0  0
  -50.2479   -4.0417   74.2745 C   0  0  0  0  0  0  0  0  0  0  0  0
  -50.2905   -3.3315   73.0641 C   0  0  0  0  0  0  0  0  0  0  0  0
  -51.5093   -3.2017   72.3658 C   0  0  0  0  0  0  0  0  0  0  0  0
  -52.6649   -3.8068   72.8879 C   0  0  0  0  0  0  0  0  0  0  0  0
  -52.6072   -4.5024   74.0975 C   0  0  0  0  0  0  0  0  0  0  0  0
  -53.7407   -5.0661   74.6188 O   0  0  0  0  0  0  0  0  0  0  0  0
  -51.5751   -2.3943   71.0615 C   0  0  0  0  0  0  0  0  0  0  0  0
  -50.5405   -1.3410   71.1307 N   0  0  0  0  0  0  0  0  0  0  0  0
  -50.6443   -0.2564   70.1770 C   0  0  0  0  0  0  0  0  0  0  0  0
  -49.1959   -1.8972   71.2474 C   0  0  0  0  0  0  0  0  0  0  0  0
  -49.0402   -2.6283   72.5869 C   0  0  0  0  0  0  0  0  0  0  0  0
  -54.4859   -4.8833   74.0269 H   0  0  0  0  0  0  0  0  0  0  0  0
  -50.4447   -6.3516   76.0302 C   0  0  0  0  0  0  0  0  0  0  0  0
  -51.4109   -5.3049   75.9865 O   0  0  0  0  0  0  0  0  0  0  0  0
  -51.5605   -3.3860   69.8513 C   0  0  0  0  0  0  0  0  0  0  0  0
  -52.7509   -3.2895   68.9225 C   0  0  0  0  0  0  0  0  0  0  0  0
  -52.6841   -3.8089   67.6221 C   0  0  0  0  0  0  0  0  0  0  0  0
  -53.7249   -3.6000   66.7149 C   0  0  0  0  0  0  0  0  0  0  0  0
  -54.8617   -2.9159   67.1289 C   0  0  0  0  0  0  0  0  0  0  0  0
  -55.8821   -2.6496   66.2649 O   0  0  0  0  0  0  0  0  0  0  0  0
  -54.9843   -2.4688   68.4378 C   0  0  0  0  0  0  0  0  0  0  0  0
  -53.9271   -2.6456   69.3330 C   0  0  0  0  0  0  0  0  0  0  0  0
  -55.5882   -2.8699   65.3659 H   0  0  0  0  0  0  0  0  0  0  0  0
 14 15  1  0  0  0
 15  1  1  0  0  0
  1  2  2  0  0  0
  2  3  1  0  0  0
  3  4  2  0  0  0
  4  5  1  0  0  0
  5  6  2  0  0  0
  1  6  1  0  0  0
  6  7  1  0  0  0
  4  8  1  0  0  0
  8 16  1  0  0  0
 16 17  1  0  0  0
 17 18  2  0  0  0
 18 19  1  0  0  0
 19 20  2  0  0  0
 20 21  1  0  0  0
 20 22  1  0  0  0
 22 23  2  0  0  0
 17 23  1  0  0  0
  8  9  1  0  0  0
  9 10  1  0  0  0
  9 11  1  0  0  0
 11 12  1  0  0  0
  3 12  1  0  0  0
  7 13  1  0  0  0
 21 24  1  0  0  0
M  END
> <minimizedAffinity>
-7.94874

$$$$
ligand_26


 24 26  0  0  0  0  0  0  0  0999 V2000
  -54.2407   -1.6053   71.2332 C   0  0  0  0  0  0  0  0  0  0  0  0
  -52.9763   -1.0193   71.1638 C   0  0  0  0  0  0  0  0  0  0  0  0
  -51.8622   -1.6573   71.7319 C   0  0  0  0  0  0  0  0  0  0  0  0
  -52.0199   -2.8913   72.3970 C   0  0  0  0  0  0  0  0  0  0  0  0
  -53.3028   -3.4556   72.4972 C   0  0  0  0  0  0  0  0  0  0  0  0
  -54.3993   -2.8123   71.9191 C   0  0  0  0  0  0  0  0  0  0  0  0
  -55.6434   -3.3788   71.9927 O   0  0  0  0  0  0  0  0  0  0  0  0
  -50.8023   -3.6165   72.9877 C   0  0  0  0  0  0  0  0  0  0  0  0
  -49.6237   -3.2568   72.1717 N   0  0  0  0  0  0  0  0  0  0  0  0
  -48.4430   -4.0807   72.3264 C   0  0  0  0  0  0  0  0  0  0  0  0
  -49.3506   -1.8232   72.2014 C   0  0  0  0  0  0  0  0  0  0  0  0
  -50.4919   -1.0531   71.5251 C   0  0  0  0  0  0  0  0  0  0  0  0
  -55.5808   -4.2186   72.4721 H   0  0  0  0  0  0  0  0  0  0  0  0
  -55.4283   -1.1428   69.2719 C   0  0  0  0  0  0  0  0  0  0  0  0
  -55.3542   -1.0179   70.6896 O   0  0  0  0  0  0  0  0  0  0  0  0
  -50.7581   -3.3570   74.5302 C   0  0  0  0  0  0  0  0  0  0  0  0
  -50.7684   -4.5985   75.3948 C   0  0  0  0  0  0  0  0  0  0  0  0
  -49.7242   -4.8476   76.2965 C   0  0  0  0  0  0  0  0  0  0  0  0
  -49.6551   -6.0555   76.9937 C   0  0  0  0  0  0  0  0  0  0  0  0
  -50.6658   -6.9952   76.8291 C   0  0  0  0  0  0  0  0  0  0  0  0
  -50.6161   -8.2058   77.4541 O   0  0  0  0  0  0  0  0  0  0  0  0
  -51.7534   -6.7319   76.0069 C   0  0  0  0  0  0  0  0  0  0  0  0
  -51.8021   -5.5394   75.2817 C   0  0  0  0  0  0  0  0  0  0  0  0
  -49.7361   -8.3098   77.8517 H   0  0  0  0  0  0  0  0  0  0  0  0
 14 15  1  0  0  0
 15  1  1  0  0  0
  1  2  2  0  0  0
  2  3  1  0  0  0
  3  4  2  0  0  0
  4  5  1  0  0  0
  5  6  2  0  0  0
  1  6  1  0  0  0
  6  7  1  0  0  0
  4  8  1  0  0  0
  8 16  1  0  0  0
 16 17  1  0  0  0
 17 18  2  0  0  0
 18 19  1  0  0  0
 19 20  2  0  0  0
 20 21  1  0  0  0
 20 22  1  0  0  0
 22 23  2  0  0  0
 17 23  1  0  0  0
  8  9  1  0  0  0
  9 10  1  0  0  0
  9 11  1  0  0  0
 11 12  1  0  0  0
  3 12  1  0  0  0
  7 13  1  0  0  0
 21 24  1  0  0  0
M  END
> <minimizedAffinity>
-7.14408

$$$$
ligand_26


 24 26  0  0  0  0  0  0  0  0999 V2000
  -50.9027   -1.7723   69.7633 C   0  0  0  0  0  0  0  0  0  0  0  0
  -52.2943   -1.8725   69.7516 C   0  0  0  0  0  0  0  0  0  0  0  0
  -52.9976   -2.1764   70.9282 C   0  0  0  0  0  0  0  0  0  0  0  0
  -52.2952   -2.4029   72.1304 C   0  0  0  0  0  0  0  0  0  0  0  0
  -50.8916   -2.3393   72.1253 C   0  0  0  0  0  0  0  0  0  0  0  0
  -50.2077   -2.0273   70.9484 C   0  0  0  0  0  0  0  0  0  0  0  0
  -48.8417   -1.9370   70.9527 O   0  0  0  0  0  0  0  0  0  0  0  0
  -53.0563   -2.6974   73.4310 C   0  0  0  0  0  0  0  0  0  0  0  0
  -54.3674   -2.0201   73.3493 N   0  0  0  0  0  0  0  0  0  0  0  0
  -55.1065   -1.8712   74.5855 C   0  0  0  0  0  0  0  0  0  0  0  0
  -55.1729   -2.5128   72.2361 C   0  0  0  0  0  0  0  0  0  0  0  0
  -54.5089   -2.1506   70.9016 C   0  0  0  0  0  0  0  0  0  0  0  0
  -48.5158   -2.1129   71.8483 H   0  0  0  0  0  0  0  0  0  0  0  0
  -50.2132   -0.0942   68.2868 C   0  0  0  0  0  0  0  0  0  0  0  0
  -50.1774   -1.4750   68.6381 O   0  0  0  0  0  0  0  0  0  0  0  0
  -53.0200   -4.2384   73.7006 C   0  0  0  0  0  0  0  0  0  0  0  0
  -52.0922   -4.6782   74.8117 C   0  0  0  0  0  0  0  0  0  0  0  0
  -51.1326   -3.7970   75.3295 C   0  0  0  0  0  0  0  0  0  0  0  0
  -50.1829   -4.2375   76.2536 C   0  0  0  0  0  0  0  0  0  0  0  0
  -50.2290   -5.5519   76.7030 C   0  0  0  0  0  0  0  0  0  0  0  0
  -49.2952   -6.0373   77.5696 O   0  0  0  0  0  0  0  0  0  0  0  0
  -51.2245   -6.4168   76.2681 C   0  0  0  0  0  0  0  0  0  0  0  0
  -52.1505   -5.9855   75.3158 C   0  0  0  0  0  0  0  0  0  0  0  0
  -48.5829   -5.3821   77.6517 H   0  0  0  0  0  0  0  0  0  0  0  0
 14 15  1  0  0  0
 15  1  1  0  0  0
  1  2  2  0  0  0
  2  3  1  0  0  0
  3  4  2  0  0  0
  4  5  1  0  0  0
  5  6  2  0  0  0
  1  6  1  0  0  0
  6  7  1  0  0  0
  4  8  1  0  0  0
  8 16  1  0  0  0
 16 17  1  0  0  0
 17 18  2  0  0  0
 18 19  1  0  0  0
 19 20  2  0  0  0
 20 21  1  0  0  0
 20 22  1  0  0  0
 22 23  2  0  0  0
 17 23  1  0  0  0
  8  9  1  0  0  0
  9 10  1  0  0  0
  9 11  1  0  0  0
 11 12  1  0  0  0
  3 12  1  0  0  0
  7 13  1  0  0  0
 21 24  1  0  0  0
M  END
> <minimizedAffinity>
-7.04821

$$$$
ligand_26


 24 26  0  0  0  0  0  0  0  0999 V2000
  -48.6421   -4.2113   73.3574 C   0  0  0  0  0  0  0  0  0  0  0  0
  -48.8905   -3.7732   72.0561 C   0  0  0  0  0  0  0  0  0  0  0  0
  -50.0933   -3.1216   71.7402 C   0  0  0  0  0  0  0  0  0  0  0  0
  -51.0706   -2.9234   72.7380 C   0  0  0  0  0  0  0  0  0  0  0  0
  -50.8297   -3.4027   74.0366 C   0  0  0  0  0  0  0  0  0  0  0  0
  -49.6244   -4.0412   74.3364 C   0  0  0  0  0  0  0  0  0  0  0  0
  -49.3800   -4.4811   75.6096 O   0  0  0  0  0  0  0  0  0  0  0  0
  -52.3727   -2.1776   72.4126 C   0  0  0  0  0  0  0  0  0  0  0  0
  -52.0818   -1.2134   71.3310 N   0  0  0  0  0  0  0  0  0  0  0  0
  -53.0606   -0.1714   71.1007 C   0  0  0  0  0  0  0  0  0  0  0  0
  -51.6263   -1.8747   70.1120 C   0  0  0  0  0  0  0  0  0  0  0  0
  -50.2703   -2.5504   70.3516 C   0  0  0  0  0  0  0  0  0  0  0  0
  -50.1402   -4.2651   76.1704 H   0  0  0  0  0  0  0  0  0  0  0  0
  -46.3323   -4.0057   73.6634 C   0  0  0  0  0  0  0  0  0  0  0  0
  -47.4803   -4.8490   73.7093 O   0  0  0  0  0  0  0  0  0  0  0  0
  -53.5161   -3.2247   72.2009 C   0  0  0  0  0  0  0  0  0  0  0  0
  -54.3775   -3.4952   73.4149 C   0  0  0  0  0  0  0  0  0  0  0  0
  -55.4115   -2.6157   73.7653 C   0  0  0  0  0  0  0  0  0  0  0  0
  -56.1173   -2.7820   74.9586 C   0  0  0  0  0  0  0  0  0  0  0  0
  -55.8239   -3.8659   75.7776 C   0  0  0  0  0  0  0  0  0  0  0  0
  -56.4557   -4.0421   76.9727 O   0  0  0  0  0  0  0  0  0  0  0  0
  -54.8629   -4.7970   75.4064 C   0  0  0  0  0  0  0  0  0  0  0  0
  -54.1321   -4.6086   74.2314 C   0  0  0  0  0  0  0  0  0  0  0  0
  -56.9675   -3.2407   77.1702 H   0  0  0  0  0  0  0  0  0  0  0  0
 14 15  1  0  0  0
 15  1  1  0  0  0
  1  2  2  0  0  0
  2  3  1  0  0  0
  3  4  2  0  0  0
  4  5  1  0  0  0
  5  6  2  0  0  0
  1  6  1  0  0  0
  6  7  1  0  0  0
  4  8  1  0  0  0
  8 16  1  0  0  0
 16 17  1  0  0  0
 17 18  2  0  0  0
 18 19  1  0  0  0
 19 20  2  0  0  0
 20 21  1  0  0  0
 20 22  1  0  0  0
 22 23  2  0  0  0
 17 23  1  0  0  0
  8  9  1  0  0  0
  9 10  1  0  0  0
  9 11  1  0  0  0
 11 12  1  0  0  0
  3 12  1  0  0  0
  7 13  1  0  0  0
 21 24  1  0  0  0
M  END
> <minimizedAffinity>
-6.86428

$$$$
ligand_26


 24 26  0  0  0  0  0  0  0  0999 V2000
  -54.6822   -4.1265   73.9956 C   0  0  0  0  0  0  0  0  0  0  0  0
  -53.2955   -4.2780   74.0239 C   0  0  0  0  0  0  0  0  0  0  0  0
  -52.4899   -3.6538   73.0582 C   0  0  0  0  0  0  0  0  0  0  0  0
  -53.0834   -2.8826   72.0369 C   0  0  0  0  0  0  0  0  0  0  0  0
  -54.4830   -2.7675   71.9921 C   0  0  0  0  0  0  0  0  0  0  0  0
  -55.2695   -3.3876   72.9653 C   0  0  0  0  0  0  0  0  0  0  0  0
  -56.6312   -3.2496   72.9364 O   0  0  0  0  0  0  0  0  0  0  0  0
  -52.2097   -2.1639   70.9990 C   0  0  0  0  0  0  0  0  0  0  0  0
  -50.9198   -1.8386   71.6430 N   0  0  0  0  0  0  0  0  0  0  0  0
  -50.0795   -0.8673   70.9743 C   0  0  0  0  0  0  0  0  0  0  0  0
  -50.2060   -3.0344   72.0803 C   0  0  0  0  0  0  0  0  0  0  0  0
  -50.9869   -3.7378   73.1977 C   0  0  0  0  0  0  0  0  0  0  0  0
  -56.8767   -2.6906   72.1838 H   0  0  0  0  0  0  0  0  0  0  0  0
  -55.8552   -3.8551   76.0011 C   0  0  0  0  0  0  0  0  0  0  0  0
  -55.5053   -4.7160   74.9206 O   0  0  0  0  0  0  0  0  0  0  0  0
  -52.2014   -3.0017   69.6774 C   0  0  0  0  0  0  0  0  0  0  0  0
  -53.2470   -2.6089   68.6569 C   0  0  0  0  0  0  0  0  0  0  0  0
  -53.6857   -1.2808   68.5610 C   0  0  0  0  0  0  0  0  0  0  0  0
  -54.7474   -0.9378   67.7214 C   0  0  0  0  0  0  0  0  0  0  0  0
  -55.3359   -1.9193   66.9327 C   0  0  0  0  0  0  0  0  0  0  0  0
  -56.4038   -1.6392   66.1329 O   0  0  0  0  0  0  0  0  0  0  0  0
  -54.8595   -3.2235   66.9484 C   0  0  0  0  0  0  0  0  0  0  0  0
  -53.8225   -3.5726   67.8161 C   0  0  0  0  0  0  0  0  0  0  0  0
  -56.7234   -0.7478   66.3489 H   0  0  0  0  0  0  0  0  0  0  0  0
 14 15  1  0  0  0
 15  1  1  0  0  0
  1  2  2  0  0  0
  2  3  1  0  0  0
  3  4  2  0  0  0
  4  5  1  0  0  0
  5  6  2  0  0  0
  1  6  1  0  0  0
  6  7  1  0  0  0
  4  8  1  0  0  0
  8 16  1  0  0  0
 16 17  1  0  0  0
 17 18  2  0  0  0
 18 19  1  0  0  0
 19 20  2  0  0  0
 20 21  1  0  0  0
 20 22  1  0  0  0
 22 23  2  0  0  0
 17 23  1  0  0  0
  8  9  1  0  0  0
  9 10  1  0  0  0
  9 11  1  0  0  0
 11 12  1  0  0  0
  3 12  1  0  0  0
  7 13  1  0  0  0
 21 24  1  0  0  0
M  END
> <minimizedAffinity>
-6.77806

$$$$
