ligand_30


 29 31  0  0  0  0  0  0  0  0999 V2000
  -48.7510   -5.4296   77.2540 C   0  0  0  0  0  0  0  0  0  0  0  0
  -47.7833   -5.2287   76.3483 C   0  0  0  0  0  0  0  0  0  0  0  0
  -48.2134   -5.0983   74.9538 C   0  0  0  0  0  0  0  0  0  0  0  0
  -47.4283   -5.1949   74.0305 O   0  0  0  0  0  0  0  0  0  0  0  0
  -49.6326   -4.7381   74.7950 C   0  0  0  0  0  0  0  0  0  0  0  0
  -50.1053   -3.8372   73.8392 C   0  0  0  0  0  0  0  0  0  0  0  0
  -51.4934   -3.7181   73.6550 C   0  0  0  0  0  0  0  0  0  0  0  0
  -52.3674   -4.5507   74.3743 C   0  0  0  0  0  0  0  0  0  0  0  0
  -51.8689   -5.3577   75.4032 C   0  0  0  0  0  0  0  0  0  0  0  0
  -50.5091   -5.3309   75.6982 C   0  0  0  0  0  0  0  0  0  0  0  0
  -50.0610   -5.7712   76.9296 O   0  0  0  0  0  0  0  0  0  0  0  0
  -48.3002   -3.0946   80.7773 C   0  0  0  0  0  0  0  0  0  0  0  0
  -47.1842   -3.3796   79.9775 C   0  0  0  0  0  0  0  0  0  0  0  0
  -47.2697   -4.2575   78.8921 C   0  0  0  0  0  0  0  0  0  0  0  0
  -48.4855   -4.8726   78.5908 C   0  0  0  0  0  0  0  0  0  0  0  0
  -49.5859   -4.6607   79.4417 C   0  0  0  0  0  0  0  0  0  0  0  0
  -49.4969   -3.7695   80.5193 C   0  0  0  0  0  0  0  0  0  0  0  0
  -50.6192   -3.5440   81.2680 O   0  0  0  0  0  0  0  0  0  0  0  0
  -51.3269   -4.1446   80.9825 H   0  0  0  0  0  0  0  0  0  0  0  0
  -47.0781   -1.1424   81.4346 C   0  0  0  0  0  0  0  0  0  0  0  0
  -48.0480   -2.1394   81.7241 O   0  0  0  0  0  0  0  0  0  0  0  0
  -49.2753   -3.0180   73.1169 O   0  0  0  0  0  0  0  0  0  0  0  0
  -49.0045   -3.5227   71.8023 C   0  0  0  0  0  0  0  0  0  0  0  0
  -52.0455   -2.8204   72.7738 O   0  0  0  0  0  0  0  0  0  0  0  0
  -52.4100   -3.4407   71.5382 C   0  0  0  0  0  0  0  0  0  0  0  0
  -53.7244   -4.4740   74.1907 O   0  0  0  0  0  0  0  0  0  0  0  0
  -54.2941   -3.4103   74.9528 C   0  0  0  0  0  0  0  0  0  0  0  0
  -52.7007   -6.1829   76.1134 O   0  0  0  0  0  0  0  0  0  0  0  0
  -52.2480   -7.5386   75.9818 C   0  0  0  0  0  0  0  0  0  0  0  0
 20 21  1  0  0  0
 21 12  1  0  0  0
 12 13  2  0  0  0
 13 14  1  0  0  0
 14 15  2  0  0  0
 15  1  1  0  0  0
  1  2  2  0  0  0
  2  3  1  0  0  0
  3  4  2  0  0  0
  3  5  1  0  0  0
  5  6  2  0  0  0
  6 22  1  0  0  0
 22 23  1  0  0  0
  6  7  1  0  0  0
  7 24  1  0  0  0
 24 25  1  0  0  0
  7  8  2  0  0  0
  8 26  1  0  0  0
 26 27  1  0  0  0
  8  9  1  0  0  0
  9 28  1  0  0  0
 28 29  1  0  0  0
  9 10  2  0  0  0
  5 10  1  0  0  0
 10 11  1  0  0  0
  1 11  1  0  0  0
 15 16  1  0  0  0
 16 17  2  0  0  0
 12 17  1  0  0  0
 17 18  1  0  0  0
 18 19  1  0  0  0
M  END
> <minimizedAffinity>
-7.90922

$$$$
ligand_30


 29 31  0  0  0  0  0  0  0  0999 V2000
  -51.9576   -3.6284   74.6173 C   0  0  0  0  0  0  0  0  0  0  0  0
  -53.2872   -3.4577   74.6239 C   0  0  0  0  0  0  0  0  0  0  0  0
  -53.8447   -2.6443   73.5402 C   0  0  0  0  0  0  0  0  0  0  0  0
  -54.9722   -2.1926   73.5944 O   0  0  0  0  0  0  0  0  0  0  0  0
  -52.9652   -2.5271   72.3647 C   0  0  0  0  0  0  0  0  0  0  0  0
  -53.4195   -2.5634   71.0452 C   0  0  0  0  0  0  0  0  0  0  0  0
  -52.5177   -2.2502   70.0140 C   0  0  0  0  0  0  0  0  0  0  0  0
  -51.2115   -1.8392   70.3294 C   0  0  0  0  0  0  0  0  0  0  0  0
  -50.7559   -1.9247   71.6498 C   0  0  0  0  0  0  0  0  0  0  0  0
  -51.6062   -2.4108   72.6385 C   0  0  0  0  0  0  0  0  0  0  0  0
  -51.0826   -2.8905   73.8247 O   0  0  0  0  0  0  0  0  0  0  0  0
  -51.0544   -7.0903   76.9126 C   0  0  0  0  0  0  0  0  0  0  0  0
  -50.1035   -6.0679   76.7819 C   0  0  0  0  0  0  0  0  0  0  0  0
  -50.3119   -4.9833   75.9240 C   0  0  0  0  0  0  0  0  0  0  0  0
  -51.4858   -4.9075   75.1731 C   0  0  0  0  0  0  0  0  0  0  0  0
  -52.4025   -5.9732   75.2320 C   0  0  0  0  0  0  0  0  0  0  0  0
  -52.1939   -7.0502   76.1038 C   0  0  0  0  0  0  0  0  0  0  0  0
  -53.1547   -8.0211   76.1758 O   0  0  0  0  0  0  0  0  0  0  0  0
  -53.8332   -7.8581   75.5004 H   0  0  0  0  0  0  0  0  0  0  0  0
  -51.1477   -7.7758   79.2056 C   0  0  0  0  0  0  0  0  0  0  0  0
  -50.7216   -8.0090   77.8704 O   0  0  0  0  0  0  0  0  0  0  0  0
  -54.6911   -2.9528   70.7086 O   0  0  0  0  0  0  0  0  0  0  0  0
  -55.5239   -1.8518   70.3208 C   0  0  0  0  0  0  0  0  0  0  0  0
  -52.8661   -2.3109   68.6866 O   0  0  0  0  0  0  0  0  0  0  0  0
  -52.6568   -3.6150   68.1390 C   0  0  0  0  0  0  0  0  0  0  0  0
  -50.3219   -1.5000   69.3423 O   0  0  0  0  0  0  0  0  0  0  0  0
  -50.3421   -0.0968   69.0822 C   0  0  0  0  0  0  0  0  0  0  0  0
  -49.4889   -1.5232   71.9824 O   0  0  0  0  0  0  0  0  0  0  0  0
  -48.5947   -2.6409   71.8759 C   0  0  0  0  0  0  0  0  0  0  0  0
 20 21  1  0  0  0
 21 12  1  0  0  0
 12 13  2  0  0  0
 13 14  1  0  0  0
 14 15  2  0  0  0
 15  1  1  0  0  0
  1  2  2  0  0  0
  2  3  1  0  0  0
  3  4  2  0  0  0
  3  5  1  0  0  0
  5  6  2  0  0  0
  6 22  1  0  0  0
 22 23  1  0  0  0
  6  7  1  0  0  0
  7 24  1  0  0  0
 24 25  1  0  0  0
  7  8  2  0  0  0
  8 26  1  0  0  0
 26 27  1  0  0  0
  8  9  1  0  0  0
  9 28  1  0  0  0
 28 29  1  0  0  0
  9 10  2  0  0  0
  5 10  1  0  0  0
 10 11  1  0  0  0
  1 11  1  0  0  0
 15 16  1  0  0  0
 16 17  2  0  0  0
 12 17  1  0  0  0
 17 18  1  0  0  0
 18 19  1  0  0  0
M  END
> <minimizedAffinity>
-7.77119

$$$$
ligand_30


 29 31  0  0  0  0  0  0  0  0999 V2000
  -50.7351   -2.5620   70.3919 C   0  0  0  0  0  0  0  0  0  0  0  0
  -50.1525   -1.3566   70.3219 C   0  0  0  0  0  0  0  0  0  0  0  0
  -50.7088   -0.4204   69.3418 C   0  0  0  0  0  0  0  0  0  0  0  0
  -50.1041    0.5751   68.9933 O   0  0  0  0  0  0  0  0  0  0  0  0
  -52.0825   -0.7410   68.9185 C   0  0  0  0  0  0  0  0  0  0  0  0
  -53.0769    0.2163   68.7102 C   0  0  0  0  0  0  0  0  0  0  0  0
  -54.2885   -0.1882   68.1243 C   0  0  0  0  0  0  0  0  0  0  0  0
  -54.4478   -1.5170   67.6961 C   0  0  0  0  0  0  0  0  0  0  0  0
  -53.4799   -2.4733   68.0232 C   0  0  0  0  0  0  0  0  0  0  0  0
  -52.3650   -2.0946   68.7651 C   0  0  0  0  0  0  0  0  0  0  0  0
  -51.6306   -3.0492   69.4437 O   0  0  0  0  0  0  0  0  0  0  0  0
  -50.5955   -3.5763   74.5175 C   0  0  0  0  0  0  0  0  0  0  0  0
  -49.4641   -3.7642   73.7106 C   0  0  0  0  0  0  0  0  0  0  0  0
  -49.5160   -3.5742   72.3260 C   0  0  0  0  0  0  0  0  0  0  0  0
  -50.7149   -3.1931   71.7219 C   0  0  0  0  0  0  0  0  0  0  0  0
  -51.8740   -3.0898   72.5128 C   0  0  0  0  0  0  0  0  0  0  0  0
  -51.8119   -3.2684   73.9012 C   0  0  0  0  0  0  0  0  0  0  0  0
  -52.9542   -3.0816   74.6302 O   0  0  0  0  0  0  0  0  0  0  0  0
  -53.7038   -2.9390   74.0296 H   0  0  0  0  0  0  0  0  0  0  0  0
  -50.2789   -5.0169   76.4046 C   0  0  0  0  0  0  0  0  0  0  0  0
  -50.3265   -3.7085   75.8525 O   0  0  0  0  0  0  0  0  0  0  0  0
  -52.9457    1.5218   69.1104 O   0  0  0  0  0  0  0  0  0  0  0  0
  -53.2985    1.7183   70.4864 C   0  0  0  0  0  0  0  0  0  0  0  0
  -55.3383    0.6764   67.9306 O   0  0  0  0  0  0  0  0  0  0  0  0
  -55.2600    1.3357   66.6643 C   0  0  0  0  0  0  0  0  0  0  0  0
  -55.6096   -1.9291   67.0949 O   0  0  0  0  0  0  0  0  0  0  0  0
  -56.5434   -2.4277   68.0522 C   0  0  0  0  0  0  0  0  0  0  0  0
  -53.6101   -3.7733   67.6106 O   0  0  0  0  0  0  0  0  0  0  0  0
  -52.7733   -3.9926   66.4652 C   0  0  0  0  0  0  0  0  0  0  0  0
 20 21  1  0  0  0
 21 12  1  0  0  0
 12 13  2  0  0  0
 13 14  1  0  0  0
 14 15  2  0  0  0
 15  1  1  0  0  0
  1  2  2  0  0  0
  2  3  1  0  0  0
  3  4  2  0  0  0
  3  5  1  0  0  0
  5  6  2  0  0  0
  6 22  1  0  0  0
 22 23  1  0  0  0
  6  7  1  0  0  0
  7 24  1  0  0  0
 24 25  1  0  0  0
  7  8  2  0  0  0
  8 26  1  0  0  0
 26 27  1  0  0  0
  8  9  1  0  0  0
  9 28  1  0  0  0
 28 29  1  0  0  0
  9 10  2  0  0  0
  5 10  1  0  0  0
 10 11  1  0  0  0
  1 11  1  0  0  0
 15 16  1  0  0  0
 16 17  2  0  0  0
 12 17  1  0  0  0
 17 18  1  0  0  0
 18 19  1  0  0  0
M  END
> <minimizedAffinity>
-7.72691

$$$$
ligand_30


 29 31  0  0  0  0  0  0  0  0999 V2000
  -48.8983   -5.3127   77.2064 C   0  0  0  0  0  0  0  0  0  0  0  0
  -47.8840   -5.8604   76.5221 C   0  0  0  0  0  0  0  0  0  0  0  0
  -47.9490   -5.7512   75.0624 C   0  0  0  0  0  0  0  0  0  0  0  0
  -47.2534   -6.4365   74.3381 O   0  0  0  0  0  0  0  0  0  0  0  0
  -48.8365   -4.6794   74.5800 C   0  0  0  0  0  0  0  0  0  0  0  0
  -48.5400   -3.8516   73.4959 C   0  0  0  0  0  0  0  0  0  0  0  0
  -49.5424   -2.9955   73.0089 C   0  0  0  0  0  0  0  0  0  0  0  0
  -50.8311   -3.0405   73.5670 C   0  0  0  0  0  0  0  0  0  0  0  0
  -51.0618   -3.7950   74.7228 C   0  0  0  0  0  0  0  0  0  0  0  0
  -50.0110   -4.4987   75.3035 C   0  0  0  0  0  0  0  0  0  0  0  0
  -50.0926   -4.8951   76.6254 O   0  0  0  0  0  0  0  0  0  0  0  0
  -48.2141   -3.0563   80.7432 C   0  0  0  0  0  0  0  0  0  0  0  0
  -47.1513   -3.3323   79.8710 C   0  0  0  0  0  0  0  0  0  0  0  0
  -47.3102   -4.1863   78.7750 C   0  0  0  0  0  0  0  0  0  0  0  0
  -48.5473   -4.7861   78.5357 C   0  0  0  0  0  0  0  0  0  0  0  0
  -49.5920   -4.5843   79.4564 C   0  0  0  0  0  0  0  0  0  0  0  0
  -49.4300   -3.7168   80.5447 C   0  0  0  0  0  0  0  0  0  0  0  0
  -50.5027   -3.4992   81.3651 O   0  0  0  0  0  0  0  0  0  0  0  0
  -51.2316   -4.0885   81.1110 H   0  0  0  0  0  0  0  0  0  0  0  0
  -46.9505   -1.1170   81.3591 C   0  0  0  0  0  0  0  0  0  0  0  0
  -47.8967   -2.1232   81.6924 O   0  0  0  0  0  0  0  0  0  0  0  0
  -47.2936   -3.7928   72.9261 O   0  0  0  0  0  0  0  0  0  0  0  0
  -46.3008   -3.2662   73.8167 C   0  0  0  0  0  0  0  0  0  0  0  0
  -49.3213   -2.1121   71.9803 O   0  0  0  0  0  0  0  0  0  0  0  0
  -49.5055   -2.7248   70.7016 C   0  0  0  0  0  0  0  0  0  0  0  0
  -51.8342   -2.2360   73.0898 O   0  0  0  0  0  0  0  0  0  0  0  0
  -52.6494   -2.9258   72.1429 C   0  0  0  0  0  0  0  0  0  0  0  0
  -52.3115   -3.8597   75.2808 O   0  0  0  0  0  0  0  0  0  0  0  0
  -52.8887   -5.1439   75.0018 C   0  0  0  0  0  0  0  0  0  0  0  0
 20 21  1  0  0  0
 21 12  1  0  0  0
 12 13  2  0  0  0
 13 14  1  0  0  0
 14 15  2  0  0  0
 15  1  1  0  0  0
  1  2  2  0  0  0
  2  3  1  0  0  0
  3  4  2  0  0  0
  3  5  1  0  0  0
  5  6  2  0  0  0
  6 22  1  0  0  0
 22 23  1  0  0  0
  6  7  1  0  0  0
  7 24  1  0  0  0
 24 25  1  0  0  0
  7  8  2  0  0  0
  8 26  1  0  0  0
 26 27  1  0  0  0
  8  9  1  0  0  0
  9 28  1  0  0  0
 28 29  1  0  0  0
  9 10  2  0  0  0
  5 10  1  0  0  0
 10 11  1  0  0  0
  1 11  1  0  0  0
 15 16  1  0  0  0
 16 17  2  0  0  0
 12 17  1  0  0  0
 17 18  1  0  0  0
 18 19  1  0  0  0
M  END
> <minimizedAffinity>
-7.49375

$$$$
ligand_30


 29 31  0  0  0  0  0  0  0  0999 V2000
  -53.1936   -2.6222   73.6690 C   0  0  0  0  0  0  0  0  0  0  0  0
  -54.4989   -2.6505   73.3651 C   0  0  0  0  0  0  0  0  0  0  0  0
  -54.8664   -2.1804   72.0269 C   0  0  0  0  0  0  0  0  0  0  0  0
  -56.0137   -1.8976   71.7409 O   0  0  0  0  0  0  0  0  0  0  0  0
  -53.7548   -2.1919   71.0609 C   0  0  0  0  0  0  0  0  0  0  0  0
  -53.8869   -2.5779   69.7259 C   0  0  0  0  0  0  0  0  0  0  0  0
  -52.8056   -2.3657   68.8537 C   0  0  0  0  0  0  0  0  0  0  0  0
  -51.6527   -1.7099   69.3173 C   0  0  0  0  0  0  0  0  0  0  0  0
  -51.5079   -1.4411   70.6831 C   0  0  0  0  0  0  0  0  0  0  0  0
  -52.5129   -1.8217   71.5672 C   0  0  0  0  0  0  0  0  0  0  0  0
  -52.2338   -1.9526   72.9148 O   0  0  0  0  0  0  0  0  0  0  0  0
  -51.5537   -6.0022   75.6578 C   0  0  0  0  0  0  0  0  0  0  0  0
  -52.9275   -5.9493   75.3818 C   0  0  0  0  0  0  0  0  0  0  0  0
  -53.5223   -4.7975   74.8570 C   0  0  0  0  0  0  0  0  0  0  0  0
  -52.7430   -3.6683   74.6019 C   0  0  0  0  0  0  0  0  0  0  0  0
  -51.3823   -3.6843   74.9595 C   0  0  0  0  0  0  0  0  0  0  0  0
  -50.7901   -4.8460   75.4723 C   0  0  0  0  0  0  0  0  0  0  0  0
  -49.4471   -4.8284   75.7316 O   0  0  0  0  0  0  0  0  0  0  0  0
  -49.1030   -3.9293   75.6047 H   0  0  0  0  0  0  0  0  0  0  0  0
  -50.9442   -7.4590   77.4586 C   0  0  0  0  0  0  0  0  0  0  0  0
  -51.1393   -7.2399   76.0684 O   0  0  0  0  0  0  0  0  0  0  0  0
  -55.0035   -3.2124   69.2438 O   0  0  0  0  0  0  0  0  0  0  0  0
  -55.8226   -2.3565   68.4359 C   0  0  0  0  0  0  0  0  0  0  0  0
  -52.8311   -2.7615   67.5384 O   0  0  0  0  0  0  0  0  0  0  0  0
  -52.4943   -4.1431   67.3902 C   0  0  0  0  0  0  0  0  0  0  0  0
  -50.5958   -1.4649   68.4782 O   0  0  0  0  0  0  0  0  0  0  0  0
  -50.5175   -0.0835   68.1283 C   0  0  0  0  0  0  0  0  0  0  0  0
  -50.3959   -0.7963   71.1574 O   0  0  0  0  0  0  0  0  0  0  0  0
  -49.3896   -1.7662   71.4842 C   0  0  0  0  0  0  0  0  0  0  0  0
 20 21  1  0  0  0
 21 12  1  0  0  0
 12 13  2  0  0  0
 13 14  1  0  0  0
 14 15  2  0  0  0
 15  1  1  0  0  0
  1  2  2  0  0  0
  2  3  1  0  0  0
  3  4  2  0  0  0
  3  5  1  0  0  0
  5  6  2  0  0  0
  6 22  1  0  0  0
 22 23  1  0  0  0
  6  7  1  0  0  0
  7 24  1  0  0  0
 24 25  1  0  0  0
  7  8  2  0  0  0
  8 26  1  0  0  0
 26 27  1  0  0  0
  8  9  1  0  0  0
  9 28  1  0  0  0
 28 29  1  0  0  0
  9 10  2  0  0  0
  5 10  1  0  0  0
 10 11  1  0  0  0
  1 11  1  0  0  0
 15 16  1  0  0  0
 16 17  2  0  0  0
 12 17  1  0  0  0
 17 18  1  0  0  0
 18 19  1  0  0  0
M  END
> <minimizedAffinity>
-7.16596

$$$$
