ligand_48


 13 13  0  0  0  0  0  0  0  0999 V2000
  -54.5544   -8.1787   85.1843 C   0  0  0  0  0  0  0  0  0  0  0  0
  -53.7179   -8.6931   84.0444 C   0  0  0  0  0  0  0  0  0  0  0  0
  -52.4809   -8.0192   83.8820 C   0  0  0  0  0  0  0  0  0  0  0  0
  -51.5782   -8.3637   82.8844 C   0  0  0  0  0  0  0  0  0  0  0  0
  -51.8911   -9.3921   82.0149 C   0  0  0  0  0  0  0  0  0  0  0  0
  -53.1075  -10.0734   82.1468 C   0  0  0  0  0  0  0  0  0  0  0  0
  -53.3422  -11.0711   81.2370 O   0  0  0  0  0  0  0  0  0  0  0  0
  -54.0568   -9.7553   83.1574 C   0  0  0  0  0  0  0  0  0  0  0  0
  -52.5829  -11.1938   80.6477 H   0  0  0  0  0  0  0  0  0  0  0  0
  -55.3255  -10.6025   83.1897 C   0  0  0  0  0  0  0  0  0  0  0  0
  -56.4554  -10.1427   83.1072 O   0  0  0  0  0  0  0  0  0  0  0  0
  -55.2125  -11.9407   83.3067 O   0  0  0  0  0  0  0  0  0  0  0  0
  -54.3445  -12.3329   83.4304 H   0  0  0  0  0  0  0  0  0  0  0  0
  1  2  1  0  0  0
  2  3  2  0  0  0
  3  4  1  0  0  0
  4  5  2  0  0  0
  5  6  1  0  0  0
  6  7  1  0  0  0
  6  8  2  0  0  0
  2  8  1  0  0  0
  8 10  1  0  0  0
 10 11  2  0  0  0
 10 12  1  0  0  0
  7  9  1  0  0  0
 12 13  1  0  0  0
M  END
> <minimizedAffinity>
-5.85193

$$$$
ligand_48


 13 13  0  0  0  0  0  0  0  0999 V2000
  -51.1979   -9.0851   81.1868 C   0  0  0  0  0  0  0  0  0  0  0  0
  -52.1558   -8.9657   82.3409 C   0  0  0  0  0  0  0  0  0  0  0  0
  -51.7296   -8.0755   83.3591 C   0  0  0  0  0  0  0  0  0  0  0  0
  -52.4899   -7.8370   84.4965 C   0  0  0  0  0  0  0  0  0  0  0  0
  -53.6995   -8.4886   84.6504 C   0  0  0  0  0  0  0  0  0  0  0  0
  -54.1450   -9.3777   83.6643 C   0  0  0  0  0  0  0  0  0  0  0  0
  -55.3488   -9.9885   83.9017 O   0  0  0  0  0  0  0  0  0  0  0  0
  -53.3996   -9.6458   82.4828 C   0  0  0  0  0  0  0  0  0  0  0  0
  -55.7500   -9.6653   84.7224 H   0  0  0  0  0  0  0  0  0  0  0  0
  -54.0267  -10.6195   81.4893 C   0  0  0  0  0  0  0  0  0  0  0  0
  -54.5565  -10.2786   80.4415 O   0  0  0  0  0  0  0  0  0  0  0  0
  -53.9960  -11.9392   81.7627 O   0  0  0  0  0  0  0  0  0  0  0  0
  -53.6386  -12.2401   82.6019 H   0  0  0  0  0  0  0  0  0  0  0  0
  1  2  1  0  0  0
  2  3  2  0  0  0
  3  4  1  0  0  0
  4  5  2  0  0  0
  5  6  1  0  0  0
  6  7  1  0  0  0
  6  8  2  0  0  0
  2  8  1  0  0  0
  8 10  1  0  0  0
 10 11  2  0  0  0
 10 12  1  0  0  0
  7  9  1  0  0  0
 12 13  1  0  0  0
M  END
> <minimizedAffinity>
-5.67511

$$$$
ligand_48


 13 13  0  0  0  0  0  0  0  0999 V2000
  -45.2501   -2.9210   80.1364 C   0  0  0  0  0  0  0  0  0  0  0  0
  -46.6756   -3.3135   79.8577 C   0  0  0  0  0  0  0  0  0  0  0  0
  -46.8141   -4.3737   78.9262 C   0  0  0  0  0  0  0  0  0  0  0  0
  -48.0561   -4.8709   78.5534 C   0  0  0  0  0  0  0  0  0  0  0  0
  -49.1985   -4.3160   79.0999 C   0  0  0  0  0  0  0  0  0  0  0  0
  -49.0943   -3.2644   80.0188 C   0  0  0  0  0  0  0  0  0  0  0  0
  -50.2759   -2.7663   80.5025 O   0  0  0  0  0  0  0  0  0  0  0  0
  -47.8421   -2.7298   80.4308 C   0  0  0  0  0  0  0  0  0  0  0  0
  -51.0327   -3.2666   80.1621 H   0  0  0  0  0  0  0  0  0  0  0  0
  -47.8888   -1.6016   81.4572 C   0  0  0  0  0  0  0  0  0  0  0  0
  -47.4912   -1.7093   82.6083 O   0  0  0  0  0  0  0  0  0  0  0  0
  -48.3870   -0.4048   81.0874 O   0  0  0  0  0  0  0  0  0  0  0  0
  -48.7603   -0.2990   80.2088 H   0  0  0  0  0  0  0  0  0  0  0  0
  1  2  1  0  0  0
  2  3  2  0  0  0
  3  4  1  0  0  0
  4  5  2  0  0  0
  5  6  1  0  0  0
  6  7  1  0  0  0
  6  8  2  0  0  0
  2  8  1  0  0  0
  8 10  1  0  0  0
 10 11  2  0  0  0
 10 12  1  0  0  0
  7  9  1  0  0  0
 12 13  1  0  0  0
M  END
> <minimizedAffinity>
-5.64244

$$$$
ligand_48


 13 13  0  0  0  0  0  0  0  0999 V2000
  -54.5136   -8.2361   84.8826 C   0  0  0  0  0  0  0  0  0  0  0  0
  -54.0885   -9.1887   83.7983 C   0  0  0  0  0  0  0  0  0  0  0  0
  -54.9699  -10.2832   83.6090 C   0  0  0  0  0  0  0  0  0  0  0  0
  -54.7391  -11.2589   82.6480 C   0  0  0  0  0  0  0  0  0  0  0  0
  -53.6134  -11.1695   81.8503 C   0  0  0  0  0  0  0  0  0  0  0  0
  -52.7215  -10.1028   82.0168 C   0  0  0  0  0  0  0  0  0  0  0  0
  -51.6266  -10.0972   81.1923 O   0  0  0  0  0  0  0  0  0  0  0  0
  -52.9236   -9.0806   82.9852 C   0  0  0  0  0  0  0  0  0  0  0  0
  -51.6596  -10.8315   80.5610 H   0  0  0  0  0  0  0  0  0  0  0  0
  -51.8776   -7.9706   83.0310 C   0  0  0  0  0  0  0  0  0  0  0  0
  -52.1481   -6.7805   83.1031 O   0  0  0  0  0  0  0  0  0  0  0  0
  -50.5718   -8.3044   83.0000 O   0  0  0  0  0  0  0  0  0  0  0  0
  -50.3215   -9.2247   82.8870 H   0  0  0  0  0  0  0  0  0  0  0  0
  1  2  1  0  0  0
  2  3  2  0  0  0
  3  4  1  0  0  0
  4  5  2  0  0  0
  5  6  1  0  0  0
  6  7  1  0  0  0
  6  8  2  0  0  0
  2  8  1  0  0  0
  8 10  1  0  0  0
 10 11  2  0  0  0
 10 12  1  0  0  0
  7  9  1  0  0  0
 12 13  1  0  0  0
M  END
> <minimizedAffinity>
-5.62961

$$$$
ligand_48


 13 13  0  0  0  0  0  0  0  0999 V2000
  -50.0083   -2.8888   73.7949 C   0  0  0  0  0  0  0  0  0  0  0  0
  -50.6119   -4.0655   74.5124 C   0  0  0  0  0  0  0  0  0  0  0  0
  -49.6892   -4.8016   75.2983 C   0  0  0  0  0  0  0  0  0  0  0  0
  -50.0708   -5.9160   76.0340 C   0  0  0  0  0  0  0  0  0  0  0  0
  -51.3896   -6.3298   75.9999 C   0  0  0  0  0  0  0  0  0  0  0  0
  -52.3233   -5.6263   75.2290 C   0  0  0  0  0  0  0  0  0  0  0  0
  -53.6053   -6.1108   75.2432 O   0  0  0  0  0  0  0  0  0  0  0  0
  -51.9749   -4.4777   74.4656 C   0  0  0  0  0  0  0  0  0  0  0  0
  -53.6880   -6.8656   75.8452 H   0  0  0  0  0  0  0  0  0  0  0  0
  -53.1070   -3.8035   73.6959 C   0  0  0  0  0  0  0  0  0  0  0  0
  -53.7132   -4.3296   72.7737 O   0  0  0  0  0  0  0  0  0  0  0  0
  -53.4802   -2.5563   74.0459 O   0  0  0  0  0  0  0  0  0  0  0  0
  -52.9903   -2.0899   74.7277 H   0  0  0  0  0  0  0  0  0  0  0  0
  1  2  1  0  0  0
  2  3  2  0  0  0
  3  4  1  0  0  0
  4  5  2  0  0  0
  5  6  1  0  0  0
  6  7  1  0  0  0
  6  8  2  0  0  0
  2  8  1  0  0  0
  8 10  1  0  0  0
 10 11  2  0  0  0
 10 12  1  0  0  0
  7  9  1  0  0  0
 12 13  1  0  0  0
M  END
> <minimizedAffinity>
-5.36744

$$$$
