ligand_38


 20 22  0  0  0  0  0  0  0  0999 V2000
  -50.3035   -6.5315   80.2068 C   0  0  0  0  0  0  0  0  0  0  0  0
  -49.4134   -5.5764   80.5155 C   0  0  0  0  0  0  0  0  0  0  0  0
  -48.6714   -4.9068   79.4418 C   0  0  0  0  0  0  0  0  0  0  0  0
  -47.9072   -3.9820   79.6844 O   0  0  0  0  0  0  0  0  0  0  0  0
  -48.8645   -5.4429   78.0900 C   0  0  0  0  0  0  0  0  0  0  0  0
  -48.0476   -5.0129   77.0402 C   0  0  0  0  0  0  0  0  0  0  0  0
  -48.2075   -5.5605   75.7636 C   0  0  0  0  0  0  0  0  0  0  0  0
  -47.2768   -5.1786   74.6500 C   0  0  0  0  0  0  0  0  0  0  0  0
  -49.2201   -6.5078   75.5509 C   0  0  0  0  0  0  0  0  0  0  0  0
  -50.0368   -6.9313   76.6070 C   0  0  0  0  0  0  0  0  0  0  0  0
  -49.8395   -6.4164   77.8873 C   0  0  0  0  0  0  0  0  0  0  0  0
  -50.6031   -6.9301   78.9103 O   0  0  0  0  0  0  0  0  0  0  0  0
  -52.4814   -8.6740   83.2099 C   0  0  0  0  0  0  0  0  0  0  0  0
  -52.0771   -9.3284   82.0495 C   0  0  0  0  0  0  0  0  0  0  0  0
  -51.3152   -8.6535   81.0925 C   0  0  0  0  0  0  0  0  0  0  0  0
  -50.9447   -7.3130   81.2842 C   0  0  0  0  0  0  0  0  0  0  0  0
  -51.2817   -6.6966   82.4982 C   0  0  0  0  0  0  0  0  0  0  0  0
  -52.0470   -7.3728   83.4566 C   0  0  0  0  0  0  0  0  0  0  0  0
  -54.3640   -8.6474   84.5973 C   0  0  0  0  0  0  0  0  0  0  0  0
  -53.2711   -9.3933   84.0643 O   0  0  0  0  0  0  0  0  0  0  0  0
 19 20  1  0  0  0
 20 13  1  0  0  0
 13 14  2  0  0  0
 14 15  1  0  0  0
 15 16  2  0  0  0
 16  1  1  0  0  0
  1  2  2  0  0  0
  2  3  1  0  0  0
  3  4  2  0  0  0
  3  5  1  0  0  0
  5  6  2  0  0  0
  6  7  1  0  0  0
  7  8  1  0  0  0
  7  9  2  0  0  0
  9 10  1  0  0  0
 10 11  2  0  0  0
  5 11  1  0  0  0
 11 12  1  0  0  0
  1 12  1  0  0  0
 16 17  1  0  0  0
 17 18  2  0  0  0
 13 18  1  0  0  0
M  END
> <minimizedAffinity>
-8.04447

$$$$
ligand_38


 20 22  0  0  0  0  0  0  0  0999 V2000
  -49.5318   -5.4080   76.9513 C   0  0  0  0  0  0  0  0  0  0  0  0
  -48.3604   -5.6809   76.3569 C   0  0  0  0  0  0  0  0  0  0  0  0
  -48.0674   -5.1045   75.0402 C   0  0  0  0  0  0  0  0  0  0  0  0
  -46.9799   -5.2742   74.5049 O   0  0  0  0  0  0  0  0  0  0  0  0
  -49.1616   -4.3678   74.3983 C   0  0  0  0  0  0  0  0  0  0  0  0
  -49.0502   -3.9655   73.0642 C   0  0  0  0  0  0  0  0  0  0  0  0
  -50.1144   -3.3028   72.4449 C   0  0  0  0  0  0  0  0  0  0  0  0
  -50.0462   -2.9495   70.9881 C   0  0  0  0  0  0  0  0  0  0  0  0
  -51.2658   -3.0160   73.1933 C   0  0  0  0  0  0  0  0  0  0  0  0
  -51.3689   -3.4193   74.5305 C   0  0  0  0  0  0  0  0  0  0  0  0
  -50.3230   -4.1221   75.1266 C   0  0  0  0  0  0  0  0  0  0  0  0
  -50.5067   -4.5786   76.4117 O   0  0  0  0  0  0  0  0  0  0  0  0
  -50.8827   -7.1970   80.6019 C   0  0  0  0  0  0  0  0  0  0  0  0
  -51.1727   -7.8064   79.3842 C   0  0  0  0  0  0  0  0  0  0  0  0
  -50.6852   -7.2621   78.1934 C   0  0  0  0  0  0  0  0  0  0  0  0
  -49.8977   -6.0999   78.2043 C   0  0  0  0  0  0  0  0  0  0  0  0
  -49.5390   -5.5508   79.4441 C   0  0  0  0  0  0  0  0  0  0  0  0
  -50.0294   -6.0956   80.6375 C   0  0  0  0  0  0  0  0  0  0  0  0
  -51.6598   -9.1704   81.5874 C   0  0  0  0  0  0  0  0  0  0  0  0
  -51.4475   -7.7652   81.7106 O   0  0  0  0  0  0  0  0  0  0  0  0
 19 20  1  0  0  0
 20 13  1  0  0  0
 13 14  2  0  0  0
 14 15  1  0  0  0
 15 16  2  0  0  0
 16  1  1  0  0  0
  1  2  2  0  0  0
  2  3  1  0  0  0
  3  4  2  0  0  0
  3  5  1  0  0  0
  5  6  2  0  0  0
  6  7  1  0  0  0
  7  8  1  0  0  0
  7  9  2  0  0  0
  9 10  1  0  0  0
 10 11  2  0  0  0
  5 11  1  0  0  0
 11 12  1  0  0  0
  1 12  1  0  0  0
 16 17  1  0  0  0
 17 18  2  0  0  0
 13 18  1  0  0  0
M  END
> <minimizedAffinity>
-7.88760

$$$$
ligand_38


 20 22  0  0  0  0  0  0  0  0999 V2000
  -49.5694   -5.1651   77.3010 C   0  0  0  0  0  0  0  0  0  0  0  0
  -49.0860   -4.3571   78.2566 C   0  0  0  0  0  0  0  0  0  0  0  0
  -49.1615   -4.7741   79.6609 C   0  0  0  0  0  0  0  0  0  0  0  0
  -48.6643   -4.0940   80.5488 O   0  0  0  0  0  0  0  0  0  0  0  0
  -49.9027   -6.0113   79.9296 C   0  0  0  0  0  0  0  0  0  0  0  0
  -50.2079   -6.3761   81.2441 C   0  0  0  0  0  0  0  0  0  0  0  0
  -50.9529   -7.5334   81.4910 C   0  0  0  0  0  0  0  0  0  0  0  0
  -51.3689   -7.8866   82.8889 C   0  0  0  0  0  0  0  0  0  0  0  0
  -51.3469   -8.3335   80.4080 C   0  0  0  0  0  0  0  0  0  0  0  0
  -51.0344   -7.9631   79.0939 C   0  0  0  0  0  0  0  0  0  0  0  0
  -50.3330   -6.7828   78.8530 C   0  0  0  0  0  0  0  0  0  0  0  0
  -50.1303   -6.4126   77.5433 O   0  0  0  0  0  0  0  0  0  0  0  0
  -49.6064   -3.4826   73.3614 C   0  0  0  0  0  0  0  0  0  0  0  0
  -48.5763   -4.3402   73.7376 C   0  0  0  0  0  0  0  0  0  0  0  0
  -48.5882   -4.9401   74.9994 C   0  0  0  0  0  0  0  0  0  0  0  0
  -49.6336   -4.6919   75.9029 C   0  0  0  0  0  0  0  0  0  0  0  0
  -50.7086   -3.8989   75.4751 C   0  0  0  0  0  0  0  0  0  0  0  0
  -50.6955   -3.2962   74.2110 C   0  0  0  0  0  0  0  0  0  0  0  0
  -50.0503   -1.5887   72.0631 C   0  0  0  0  0  0  0  0  0  0  0  0
  -49.4846   -2.8964   72.1315 O   0  0  0  0  0  0  0  0  0  0  0  0
 19 20  1  0  0  0
 20 13  1  0  0  0
 13 14  2  0  0  0
 14 15  1  0  0  0
 15 16  2  0  0  0
 16  1  1  0  0  0
  1  2  2  0  0  0
  2  3  1  0  0  0
  3  4  2  0  0  0
  3  5  1  0  0  0
  5  6  2  0  0  0
  6  7  1  0  0  0
  7  8  1  0  0  0
  7  9  2  0  0  0
  9 10  1  0  0  0
 10 11  2  0  0  0
  5 11  1  0  0  0
 11 12  1  0  0  0
  1 12  1  0  0  0
 16 17  1  0  0  0
 17 18  2  0  0  0
 13 18  1  0  0  0
M  END
> <minimizedAffinity>
-7.72586

$$$$
ligand_38


 20 22  0  0  0  0  0  0  0  0999 V2000
  -49.2576   -5.2073   76.0790 C   0  0  0  0  0  0  0  0  0  0  0  0
  -48.0939   -5.4979   75.4779 C   0  0  0  0  0  0  0  0  0  0  0  0
  -47.7450   -4.8302   74.2192 C   0  0  0  0  0  0  0  0  0  0  0  0
  -46.6601   -5.0183   73.6848 O   0  0  0  0  0  0  0  0  0  0  0  0
  -48.7832   -3.9780   73.6295 C   0  0  0  0  0  0  0  0  0  0  0  0
  -48.6254   -3.4712   72.3362 C   0  0  0  0  0  0  0  0  0  0  0  0
  -49.6383   -2.6961   71.7630 C   0  0  0  0  0  0  0  0  0  0  0  0
  -49.5244   -2.2251   70.3428 C   0  0  0  0  0  0  0  0  0  0  0  0
  -50.7840   -2.4060   72.5189 C   0  0  0  0  0  0  0  0  0  0  0  0
  -50.9335   -2.9146   73.8153 C   0  0  0  0  0  0  0  0  0  0  0  0
  -49.9408   -3.7264   74.3617 C   0  0  0  0  0  0  0  0  0  0  0  0
  -50.1731   -4.2786   75.6006 O   0  0  0  0  0  0  0  0  0  0  0  0
  -50.7916   -7.2376   79.5253 C   0  0  0  0  0  0  0  0  0  0  0  0
  -50.9928   -7.7774   78.2579 C   0  0  0  0  0  0  0  0  0  0  0  0
  -50.4448   -7.1535   77.1344 C   0  0  0  0  0  0  0  0  0  0  0  0
  -49.6849   -5.9801   77.2634 C   0  0  0  0  0  0  0  0  0  0  0  0
  -49.4152   -5.5006   78.5537 C   0  0  0  0  0  0  0  0  0  0  0  0
  -49.9661   -6.1252   79.6796 C   0  0  0  0  0  0  0  0  0  0  0  0
  -50.9082   -7.5158   81.8445 C   0  0  0  0  0  0  0  0  0  0  0  0
  -51.4111   -7.8818   80.5608 O   0  0  0  0  0  0  0  0  0  0  0  0
 19 20  1  0  0  0
 20 13  1  0  0  0
 13 14  2  0  0  0
 14 15  1  0  0  0
 15 16  2  0  0  0
 16  1  1  0  0  0
  1  2  2  0  0  0
  2  3  1  0  0  0
  3  4  2  0  0  0
  3  5  1  0  0  0
  5  6  2  0  0  0
  6  7  1  0  0  0
  7  8  1  0  0  0
  7  9  2  0  0  0
  9 10  1  0  0  0
 10 11  2  0  0  0
  5 11  1  0  0  0
 11 12  1  0  0  0
  1 12  1  0  0  0
 16 17  1  0  0  0
 17 18  2  0  0  0
 13 18  1  0  0  0
M  END
> <minimizedAffinity>
-7.71536

$$$$
ligand_38


 20 22  0  0  0  0  0  0  0  0999 V2000
  -51.2970   -3.1643   72.5092 C   0  0  0  0  0  0  0  0  0  0  0  0
  -52.5455   -3.6083   72.7188 C   0  0  0  0  0  0  0  0  0  0  0  0
  -52.8276   -4.4428   73.8918 C   0  0  0  0  0  0  0  0  0  0  0  0
  -53.9685   -4.8023   74.1508 O   0  0  0  0  0  0  0  0  0  0  0  0
  -51.6663   -4.8515   74.6895 C   0  0  0  0  0  0  0  0  0  0  0  0
  -51.8077   -5.8120   75.6953 C   0  0  0  0  0  0  0  0  0  0  0  0
  -50.6886   -6.2297   76.4223 C   0  0  0  0  0  0  0  0  0  0  0  0
  -50.8080   -7.3270   77.4389 C   0  0  0  0  0  0  0  0  0  0  0  0
  -49.4436   -5.6416   76.1533 C   0  0  0  0  0  0  0  0  0  0  0  0
  -49.3104   -4.6775   75.1461 C   0  0  0  0  0  0  0  0  0  0  0  0
  -50.4217   -4.3015   74.3932 C   0  0  0  0  0  0  0  0  0  0  0  0
  -50.2248   -3.4210   73.3542 O   0  0  0  0  0  0  0  0  0  0  0  0
  -50.7002   -0.9824   68.8711 C   0  0  0  0  0  0  0  0  0  0  0  0
  -50.3366   -0.4115   70.0877 C   0  0  0  0  0  0  0  0  0  0  0  0
  -50.4723   -1.1390   71.2727 C   0  0  0  0  0  0  0  0  0  0  0  0
  -50.9724   -2.4507   71.2570 C   0  0  0  0  0  0  0  0  0  0  0  0
  -51.2478   -3.0430   70.0157 C   0  0  0  0  0  0  0  0  0  0  0  0
  -51.1134   -2.3128   68.8282 C   0  0  0  0  0  0  0  0  0  0  0  0
  -49.4760    0.7137   67.8252 C   0  0  0  0  0  0  0  0  0  0  0  0
  -50.5872   -0.1790   67.7699 O   0  0  0  0  0  0  0  0  0  0  0  0
 19 20  1  0  0  0
 20 13  1  0  0  0
 13 14  2  0  0  0
 14 15  1  0  0  0
 15 16  2  0  0  0
 16  1  1  0  0  0
  1  2  2  0  0  0
  2  3  1  0  0  0
  3  4  2  0  0  0
  3  5  1  0  0  0
  5  6  2  0  0  0
  6  7  1  0  0  0
  7  8  1  0  0  0
  7  9  2  0  0  0
  9 10  1  0  0  0
 10 11  2  0  0  0
  5 11  1  0  0  0
 11 12  1  0  0  0
  1 12  1  0  0  0
 16 17  1  0  0  0
 17 18  2  0  0  0
 13 18  1  0  0  0
M  END
> <minimizedAffinity>
-7.66502

$$$$
