ligand_1


 30 33  0  0  0  0  0  0  0  0999 V2000
  -50.3203   -3.9086   74.6397 C   0  0  0  0  0  0  0  0  0  0  0  0
  -50.7080   -2.5914   73.9490 C   0  0  0  0  0  0  0  0  0  0  0  0
  -51.6543   -3.0959   72.8526 C   0  0  0  0  0  0  0  0  0  0  0  0
  -50.8503   -3.8602   71.8066 C   0  0  0  0  0  0  0  0  0  0  0  0
  -51.6547   -3.6429   70.5818 C   0  0  0  0  0  0  0  0  0  0  0  0
  -52.2271   -2.1987   70.6722 C   0  0  0  0  0  0  0  0  0  0  0  0
  -52.4490   -2.0904   72.1276 O   0  0  0  0  0  0  0  0  0  0  0  0
  -51.1111   -1.1546   70.2130 C   0  0  0  0  0  0  0  0  0  0  0  0
  -50.1593   -0.6507   71.3104 C   0  0  0  0  0  0  0  0  0  0  0  0
  -51.6347    0.1091   69.5189 C   0  0  0  0  0  0  0  0  0  0  0  0
  -52.5548   -0.2036   68.3443 C   0  0  0  0  0  0  0  0  0  0  0  0
  -53.8300   -0.7863   68.9279 C   0  0  0  0  0  0  0  0  0  0  0  0
  -55.1852   -0.7436   68.0563 C   0  0  0  0  0  0  0  0  0  0  0  0
  -55.0730    0.2002   66.8421 C   0  0  0  0  0  0  0  0  0  0  0  0
  -55.7859   -2.0372   67.4005 C   0  0  0  0  0  0  0  0  0  0  0  0
  -56.2572   -0.3793   69.1239 C   0  0  0  0  0  0  0  0  0  0  0  0
  -56.0191   -1.1555   70.4659 C   0  0  0  0  0  0  0  0  0  0  0  0
  -54.9490   -2.3246   70.5008 C   0  0  0  0  0  0  0  0  0  0  0  0
  -53.5978   -2.1153   69.7071 C   0  0  0  0  0  0  0  0  0  0  0  0
  -53.3623   -3.2089   68.6063 C   0  0  0  0  0  0  0  0  0  0  0  0
  -52.4537   -4.0811   73.7546 C   0  0  0  0  0  0  0  0  0  0  0  0
  -51.4293   -4.8053   74.4664 O   0  0  0  0  0  0  0  0  0  0  0  0
  -48.2567   -5.0738   74.9212 C   0  0  0  0  0  0  0  0  0  0  0  0
  -49.1317   -4.4106   74.0190 O   0  0  0  0  0  0  0  0  0  0  0  0
  -53.3014   -3.3767   74.6768 O   0  0  0  0  0  0  0  0  0  0  0  0
  -54.6887   -3.6221   74.4640 C   0  0  0  0  0  0  0  0  0  0  0  0
  -56.5131    1.0487   69.2766 O   0  0  0  0  0  0  0  0  0  0  0  0
  -56.0561    1.7871   70.3151 C   0  0  0  0  0  0  0  0  0  0  0  0
  -54.7102    2.3842   70.0717 C   0  0  0  0  0  0  0  0  0  0  0  0
  -56.6173    1.8550   71.4039 O   0  0  0  0  0  0  0  0  0  0  0  0
 23 24  1  0  0  0
 24  1  1  0  0  0
  1  2  1  0  0  0
  2  3  1  0  0  0
  3  4  1  0  0  0
  4  5  1  0  0  0
  5  6  1  0  0  0
  6  7  1  0  0  0
  3  7  1  0  0  0
  6  8  1  0  0  0
  8  9  1  0  0  0
  8 10  1  0  0  0
 10 11  1  0  0  0
 11 12  1  0  0  0
 12 13  1  0  0  0
 13 14  1  0  0  0
 13 15  1  0  0  0
 13 16  1  0  0  0
 16 27  1  0  0  0
 27 28  1  0  0  0
 28 29  1  0  0  0
 28 30  2  0  0  0
 16 17  1  0  0  0
 17 18  1  0  0  0
 18 19  1  0  0  0
 12 19  1  0  0  0
  6 19  1  0  0  0
 19 20  1  0  0  0
  3 21  1  0  0  0
 25 26  1  0  0  0
 21 22  1  0  0  0
  1 22  1  0  0  0
 21 25  1  0  0  0
M  END
> <minimizedAffinity>
-6.52383

$$$$
ligand_1


 30 33  0  0  0  0  0  0  0  0999 V2000
  -56.5367    1.4367   67.2979 C   0  0  0  0  0  0  0  0  0  0  0  0
  -56.0747    0.0152   67.6563 C   0  0  0  0  0  0  0  0  0  0  0  0
  -54.8989    0.3107   68.5955 C   0  0  0  0  0  0  0  0  0  0  0  0
  -53.7472    0.9010   67.7895 C   0  0  0  0  0  0  0  0  0  0  0  0
  -52.5684    0.4661   68.5741 C   0  0  0  0  0  0  0  0  0  0  0  0
  -52.8958   -0.9518   69.1256 C   0  0  0  0  0  0  0  0  0  0  0  0
  -54.3462   -0.8163   69.3651 O   0  0  0  0  0  0  0  0  0  0  0  0
  -52.6316   -2.0390   67.9878 C   0  0  0  0  0  0  0  0  0  0  0  0
  -53.8084   -2.3337   67.0431 C   0  0  0  0  0  0  0  0  0  0  0  0
  -52.1558   -3.4106   68.4829 C   0  0  0  0  0  0  0  0  0  0  0  0
  -50.9356   -3.3168   69.3920 C   0  0  0  0  0  0  0  0  0  0  0  0
  -51.3989   -2.6660   70.6835 C   0  0  0  0  0  0  0  0  0  0  0  0
  -50.5329   -2.8788   72.0262 C   0  0  0  0  0  0  0  0  0  0  0  0
  -49.4971   -4.0121   71.8836 C   0  0  0  0  0  0  0  0  0  0  0  0
  -49.6614   -1.7252   72.6378 C   0  0  0  0  0  0  0  0  0  0  0  0
  -51.6354   -3.0759   73.1066 C   0  0  0  0  0  0  0  0  0  0  0  0
  -52.8291   -2.0801   72.8982 C   0  0  0  0  0  0  0  0  0  0  0  0
  -52.6770   -0.9036   71.8466 C   0  0  0  0  0  0  0  0  0  0  0  0
  -51.9444   -1.2206   70.4819 C   0  0  0  0  0  0  0  0  0  0  0  0
  -50.6770   -0.3249   70.2485 C   0  0  0  0  0  0  0  0  0  0  0  0
  -55.6128    1.4203   69.4217 C   0  0  0  0  0  0  0  0  0  0  0  0
  -56.2025    2.2719   68.4180 O   0  0  0  0  0  0  0  0  0  0  0  0
  -56.0257    3.2233   65.8004 C   0  0  0  0  0  0  0  0  0  0  0  0
  -55.8525    1.8470   66.1090 O   0  0  0  0  0  0  0  0  0  0  0  0
  -56.6319    0.8672   70.2708 O   0  0  0  0  0  0  0  0  0  0  0  0
  -56.3604    1.0389   71.6589 C   0  0  0  0  0  0  0  0  0  0  0  0
  -52.0248   -4.4618   73.3427 O   0  0  0  0  0  0  0  0  0  0  0  0
  -52.1875   -4.9970   74.5754 C   0  0  0  0  0  0  0  0  0  0  0  0
  -50.9760   -4.8775   75.4388 C   0  0  0  0  0  0  0  0  0  0  0  0
  -53.1755   -5.6396   74.9159 O   0  0  0  0  0  0  0  0  0  0  0  0
 23 24  1  0  0  0
 24  1  1  0  0  0
  1  2  1  0  0  0
  2  3  1  0  0  0
  3  4  1  0  0  0
  4  5  1  0  0  0
  5  6  1  0  0  0
  6  7  1  0  0  0
  3  7  1  0  0  0
  6  8  1  0  0  0
  8  9  1  0  0  0
  8 10  1  0  0  0
 10 11  1  0  0  0
 11 12  1  0  0  0
 12 13  1  0  0  0
 13 14  1  0  0  0
 13 15  1  0  0  0
 13 16  1  0  0  0
 16 27  1  0  0  0
 27 28  1  0  0  0
 28 29  1  0  0  0
 28 30  2  0  0  0
 16 17  1  0  0  0
 17 18  1  0  0  0
 18 19  1  0  0  0
 12 19  1  0  0  0
  6 19  1  0  0  0
 19 20  1  0  0  0
  3 21  1  0  0  0
 25 26  1  0  0  0
 21 22  1  0  0  0
  1 22  1  0  0  0
 21 25  1  0  0  0
M  END
> <minimizedAffinity>
-6.32006

$$$$
ligand_1


 30 33  0  0  0  0  0  0  0  0999 V2000
  -54.4127    2.1206   67.2214 C   0  0  0  0  0  0  0  0  0  0  0  0
  -53.9454    1.9962   68.6804 C   0  0  0  0  0  0  0  0  0  0  0  0
  -54.5202    0.6269   69.0629 C   0  0  0  0  0  0  0  0  0  0  0  0
  -56.0392    0.7251   69.1494 C   0  0  0  0  0  0  0  0  0  0  0  0
  -56.3579   -0.3173   70.1525 C   0  0  0  0  0  0  0  0  0  0  0  0
  -55.2054   -0.3002   71.1979 C   0  0  0  0  0  0  0  0  0  0  0  0
  -54.0597    0.0273   70.3265 O   0  0  0  0  0  0  0  0  0  0  0  0
  -55.4510    0.8824   72.2408 C   0  0  0  0  0  0  0  0  0  0  0  0
  -54.8785    2.2568   71.8570 C   0  0  0  0  0  0  0  0  0  0  0  0
  -54.9518    0.6192   73.6672 C   0  0  0  0  0  0  0  0  0  0  0  0
  -55.4827   -0.6882   74.2441 C   0  0  0  0  0  0  0  0  0  0  0  0
  -54.8159   -1.8125   73.4711 C   0  0  0  0  0  0  0  0  0  0  0  0
  -54.7347   -3.2807   74.1314 C   0  0  0  0  0  0  0  0  0  0  0  0
  -55.0687   -3.2670   75.6367 C   0  0  0  0  0  0  0  0  0  0  0  0
  -55.6253   -4.4671   73.6178 C   0  0  0  0  0  0  0  0  0  0  0  0
  -53.3011   -3.7433   73.7411 C   0  0  0  0  0  0  0  0  0  0  0  0
  -52.9523   -3.3495   72.2635 C   0  0  0  0  0  0  0  0  0  0  0  0
  -54.1005   -2.7937   71.3223 C   0  0  0  0  0  0  0  0  0  0  0  0
  -55.1567   -1.7994   71.9510 C   0  0  0  0  0  0  0  0  0  0  0  0
  -56.6298   -2.3311   71.8488 C   0  0  0  0  0  0  0  0  0  0  0  0
  -54.0936   -0.1095   67.7594 C   0  0  0  0  0  0  0  0  0  0  0  0
  -54.5122    0.7831   66.7065 O   0  0  0  0  0  0  0  0  0  0  0  0
  -55.6308    4.1078   67.7337 C   0  0  0  0  0  0  0  0  0  0  0  0
  -55.6793    2.7881   67.2088 O   0  0  0  0  0  0  0  0  0  0  0  0
  -52.6710   -0.3079   67.7114 O   0  0  0  0  0  0  0  0  0  0  0  0
  -52.2894   -1.6733   67.8537 C   0  0  0  0  0  0  0  0  0  0  0  0
  -52.2661   -3.4325   74.7210 O   0  0  0  0  0  0  0  0  0  0  0  0
  -51.1533   -4.1818   74.9018 C   0  0  0  0  0  0  0  0  0  0  0  0
  -51.4214   -5.4920   75.5643 C   0  0  0  0  0  0  0  0  0  0  0  0
  -50.0161   -3.7813   74.6753 O   0  0  0  0  0  0  0  0  0  0  0  0
 23 24  1  0  0  0
 24  1  1  0  0  0
  1  2  1  0  0  0
  2  3  1  0  0  0
  3  4  1  0  0  0
  4  5  1  0  0  0
  5  6  1  0  0  0
  6  7  1  0  0  0
  3  7  1  0  0  0
  6  8  1  0  0  0
  8  9  1  0  0  0
  8 10  1  0  0  0
 10 11  1  0  0  0
 11 12  1  0  0  0
 12 13  1  0  0  0
 13 14  1  0  0  0
 13 15  1  0  0  0
 13 16  1  0  0  0
 16 27  1  0  0  0
 27 28  1  0  0  0
 28 29  1  0  0  0
 28 30  2  0  0  0
 16 17  1  0  0  0
 17 18  1  0  0  0
 18 19  1  0  0  0
 12 19  1  0  0  0
  6 19  1  0  0  0
 19 20  1  0  0  0
  3 21  1  0  0  0
 25 26  1  0  0  0
 21 22  1  0  0  0
  1 22  1  0  0  0
 21 25  1  0  0  0
M  END
> <minimizedAffinity>
-5.69334

$$$$
ligand_1


 30 33  0  0  0  0  0  0  0  0999 V2000
  -48.6994   -4.0159   73.7339 C   0  0  0  0  0  0  0  0  0  0  0  0
  -49.1425   -2.6096   73.3000 C   0  0  0  0  0  0  0  0  0  0  0  0
  -50.5826   -2.8769   72.8451 C   0  0  0  0  0  0  0  0  0  0  0  0
  -50.5602   -3.6913   71.5564 C   0  0  0  0  0  0  0  0  0  0  0  0
  -51.8175   -3.2630   70.9005 C   0  0  0  0  0  0  0  0  0  0  0  0
  -52.0033   -1.7537   71.2304 C   0  0  0  0  0  0  0  0  0  0  0  0
  -51.4426   -1.7081   72.5953 O   0  0  0  0  0  0  0  0  0  0  0  0
  -51.1044   -0.8791   70.2437 C   0  0  0  0  0  0  0  0  0  0  0  0
  -49.6593   -0.6134   70.6966 C   0  0  0  0  0  0  0  0  0  0  0  0
  -51.6739    0.4971   69.8768 C   0  0  0  0  0  0  0  0  0  0  0  0
  -53.0973    0.4194   69.3364 C   0  0  0  0  0  0  0  0  0  0  0  0
  -53.9874    0.0168   70.4990 C   0  0  0  0  0  0  0  0  0  0  0  0
  -55.5650    0.3403   70.4306 C   0  0  0  0  0  0  0  0  0  0  0  0
  -55.9128    1.3318   69.3021 C   0  0  0  0  0  0  0  0  0  0  0  0
  -56.6301   -0.7900   70.2016 C   0  0  0  0  0  0  0  0  0  0  0  0
  -55.8739    0.8038   71.8836 C   0  0  0  0  0  0  0  0  0  0  0  0
  -55.1359   -0.0892   72.9410 C   0  0  0  0  0  0  0  0  0  0  0  0
  -54.4174   -1.4181   72.4607 C   0  0  0  0  0  0  0  0  0  0  0  0
  -53.6337   -1.3814   71.0881 C   0  0  0  0  0  0  0  0  0  0  0  0
  -54.1783   -2.4226   70.0477 C   0  0  0  0  0  0  0  0  0  0  0  0
  -50.9808   -3.7752   74.0525 C   0  0  0  0  0  0  0  0  0  0  0  0
  -49.8834   -4.7042   74.1677 O   0  0  0  0  0  0  0  0  0  0  0  0
  -46.8521   -5.2872   72.9175 C   0  0  0  0  0  0  0  0  0  0  0  0
  -48.0918   -4.6639   72.6110 O   0  0  0  0  0  0  0  0  0  0  0  0
  -51.1129   -3.0043   75.2581 O   0  0  0  0  0  0  0  0  0  0  0  0
  -50.5817   -3.6609   76.4056 C   0  0  0  0  0  0  0  0  0  0  0  0
  -55.7631    2.2409   72.1078 O   0  0  0  0  0  0  0  0  0  0  0  0
  -54.6619    2.8388   72.6200 C   0  0  0  0  0  0  0  0  0  0  0  0
  -54.8911    3.4571   73.9589 C   0  0  0  0  0  0  0  0  0  0  0  0
  -53.6137    2.9856   71.9998 O   0  0  0  0  0  0  0  0  0  0  0  0
 23 24  1  0  0  0
 24  1  1  0  0  0
  1  2  1  0  0  0
  2  3  1  0  0  0
  3  4  1  0  0  0
  4  5  1  0  0  0
  5  6  1  0  0  0
  6  7  1  0  0  0
  3  7  1  0  0  0
  6  8  1  0  0  0
  8  9  1  0  0  0
  8 10  1  0  0  0
 10 11  1  0  0  0
 11 12  1  0  0  0
 12 13  1  0  0  0
 13 14  1  0  0  0
 13 15  1  0  0  0
 13 16  1  0  0  0
 16 27  1  0  0  0
 27 28  1  0  0  0
 28 29  1  0  0  0
 28 30  2  0  0  0
 16 17  1  0  0  0
 17 18  1  0  0  0
 18 19  1  0  0  0
 12 19  1  0  0  0
  6 19  1  0  0  0
 19 20  1  0  0  0
  3 21  1  0  0  0
 25 26  1  0  0  0
 21 22  1  0  0  0
  1 22  1  0  0  0
 21 25  1  0  0  0
M  END
> <minimizedAffinity>
-5.34568

$$$$
ligand_1


 30 33  0  0  0  0  0  0  0  0999 V2000
  -48.8386   -5.2322   75.5250 C   0  0  0  0  0  0  0  0  0  0  0  0
  -49.9800   -5.3266   74.4998 C   0  0  0  0  0  0  0  0  0  0  0  0
  -49.7129   -4.0853   73.6397 C   0  0  0  0  0  0  0  0  0  0  0  0
  -50.0243   -2.8335   74.4525 C   0  0  0  0  0  0  0  0  0  0  0  0
  -50.4210   -1.8728   73.3971 C   0  0  0  0  0  0  0  0  0  0  0  0
  -51.1892   -2.6869   72.3161 C   0  0  0  0  0  0  0  0  0  0  0  0
  -50.4542   -3.9659   72.3731 O   0  0  0  0  0  0  0  0  0  0  0  0
  -52.6981   -2.9053   72.7872 C   0  0  0  0  0  0  0  0  0  0  0  0
  -52.9668   -4.1474   73.6526 C   0  0  0  0  0  0  0  0  0  0  0  0
  -53.7395   -2.9618   71.6624 C   0  0  0  0  0  0  0  0  0  0  0  0
  -53.6651   -1.7571   70.7311 C   0  0  0  0  0  0  0  0  0  0  0  0
  -52.3655   -1.8810   69.9553 C   0  0  0  0  0  0  0  0  0  0  0  0
  -52.2085   -1.1002   68.5539 C   0  0  0  0  0  0  0  0  0  0  0  0
  -53.5568   -0.5776   68.0186 C   0  0  0  0  0  0  0  0  0  0  0  0
  -51.2961    0.1695   68.4142 C   0  0  0  0  0  0  0  0  0  0  0  0
  -51.4674   -2.1454   67.6708 C   0  0  0  0  0  0  0  0  0  0  0  0
  -50.3402   -2.8818   68.4753 C   0  0  0  0  0  0  0  0  0  0  0  0
  -49.9414   -2.3436   69.9121 C   0  0  0  0  0  0  0  0  0  0  0  0
  -51.1013   -1.8477   70.8651 C   0  0  0  0  0  0  0  0  0  0  0  0
  -50.9363   -0.3476   71.2959 C   0  0  0  0  0  0  0  0  0  0  0  0
  -48.1744   -4.2884   73.5169 C   0  0  0  0  0  0  0  0  0  0  0  0
  -47.7530   -4.5568   74.8700 O   0  0  0  0  0  0  0  0  0  0  0  0
  -48.6335   -4.8200   77.8666 C   0  0  0  0  0  0  0  0  0  0  0  0
  -49.3112   -4.4981   76.6597 O   0  0  0  0  0  0  0  0  0  0  0  0
  -47.8593   -5.4015   72.6643 O   0  0  0  0  0  0  0  0  0  0  0  0
  -46.5339   -5.8913   72.8470 C   0  0  0  0  0  0  0  0  0  0  0  0
  -52.3369   -3.0189   66.8906 O   0  0  0  0  0  0  0  0  0  0  0  0
  -53.3438   -3.7489   67.4253 C   0  0  0  0  0  0  0  0  0  0  0  0
  -54.6908   -3.3725   66.9047 C   0  0  0  0  0  0  0  0  0  0  0  0
  -53.1949   -4.5467   68.3453 O   0  0  0  0  0  0  0  0  0  0  0  0
 23 24  1  0  0  0
 24  1  1  0  0  0
  1  2  1  0  0  0
  2  3  1  0  0  0
  3  4  1  0  0  0
  4  5  1  0  0  0
  5  6  1  0  0  0
  6  7  1  0  0  0
  3  7  1  0  0  0
  6  8  1  0  0  0
  8  9  1  0  0  0
  8 10  1  0  0  0
 10 11  1  0  0  0
 11 12  1  0  0  0
 12 13  1  0  0  0
 13 14  1  0  0  0
 13 15  1  0  0  0
 13 16  1  0  0  0
 16 27  1  0  0  0
 27 28  1  0  0  0
 28 29  1  0  0  0
 28 30  2  0  0  0
 16 17  1  0  0  0
 17 18  1  0  0  0
 18 19  1  0  0  0
 12 19  1  0  0  0
  6 19  1  0  0  0
 19 20  1  0  0  0
  3 21  1  0  0  0
 25 26  1  0  0  0
 21 22  1  0  0  0
  1 22  1  0  0  0
 21 25  1  0  0  0
M  END
> <minimizedAffinity>
-4.19280

$$$$
