ligand_36


  5  4  0  0  0  0  0  0  0  0999 V2000
  -47.6895   -0.1590   80.8271 C   0  0  0  0  0  0  0  0  0  0  0  0
  -47.1430    1.1445   81.9022 S   0  0  0  0  0  0  0  0  0  0  0  0
  -48.6627    1.9160   82.4013 C   0  0  0  0  0  0  0  0  0  0  0  0
  -46.5494    0.5332   83.0751 O   0  0  0  0  0  0  0  0  0  0  0  0
  -46.4026    2.0995   81.1012 O   0  0  0  0  0  0  0  0  0  0  0  0
  1  2  1  0  0  0
  2  3  1  0  0  0
  2  4  2  0  0  0
  2  5  2  0  0  0
M  END
> <minimizedAffinity>
-3.33923

$$$$
ligand_36


  5  4  0  0  0  0  0  0  0  0999 V2000
  -48.6777    1.9072   82.9844 C   0  0  0  0  0  0  0  0  0  0  0  0
  -47.5123    0.9271   82.0708 S   0  0  0  0  0  0  0  0  0  0  0  0
  -46.8290    2.0902   80.9158 C   0  0  0  0  0  0  0  0  0  0  0  0
  -46.4550    0.5318   82.9806 O   0  0  0  0  0  0  0  0  0  0  0  0
  -48.2582   -0.0613   81.3168 O   0  0  0  0  0  0  0  0  0  0  0  0
  1  2  1  0  0  0
  2  3  1  0  0  0
  2  4  2  0  0  0
  2  5  2  0  0  0
M  END
> <minimizedAffinity>
-3.32852

$$$$
ligand_36


  5  4  0  0  0  0  0  0  0  0999 V2000
  -48.6526    1.9036   82.5438 C   0  0  0  0  0  0  0  0  0  0  0  0
  -47.1468    1.1549   81.9733 S   0  0  0  0  0  0  0  0  0  0  0  0
  -47.7218   -0.1040   80.8604 C   0  0  0  0  0  0  0  0  0  0  0  0
  -46.4277    2.1426   81.1928 O   0  0  0  0  0  0  0  0  0  0  0  0
  -46.5224    0.4964   83.1039 O   0  0  0  0  0  0  0  0  0  0  0  0
  1  2  1  0  0  0
  2  3  1  0  0  0
  2  4  2  0  0  0
  2  5  2  0  0  0
M  END
> <minimizedAffinity>
-3.31672

$$$$
ligand_36


  5  4  0  0  0  0  0  0  0  0999 V2000
  -47.6206    0.3767   80.9275 C   0  0  0  0  0  0  0  0  0  0  0  0
  -47.0387   -1.1725   81.5714 S   0  0  0  0  0  0  0  0  0  0  0  0
  -47.8248   -2.3656   80.5167 C   0  0  0  0  0  0  0  0  0  0  0  0
  -45.6102   -1.2435   81.3344 O   0  0  0  0  0  0  0  0  0  0  0  0
  -47.5840   -1.3317   82.9053 O   0  0  0  0  0  0  0  0  0  0  0  0
  1  2  1  0  0  0
  2  3  1  0  0  0
  2  4  2  0  0  0
  2  5  2  0  0  0
M  END
> <minimizedAffinity>
-3.16167

$$$$
ligand_36


  5  4  0  0  0  0  0  0  0  0999 V2000
  -47.8346   -2.3291   80.4931 C   0  0  0  0  0  0  0  0  0  0  0  0
  -47.0238   -1.1524   81.5474 S   0  0  0  0  0  0  0  0  0  0  0  0
  -47.5548    0.4088   80.8882 C   0  0  0  0  0  0  0  0  0  0  0  0
  -47.5853   -1.2868   82.8772 O   0  0  0  0  0  0  0  0  0  0  0  0
  -45.5959   -1.2661   81.3237 O   0  0  0  0  0  0  0  0  0  0  0  0
  1  2  1  0  0  0
  2  3  1  0  0  0
  2  4  2  0  0  0
  2  5  2  0  0  0
M  END
> <minimizedAffinity>
-3.15662

$$$$
