ligand_39


 26 30  0  0  0  0  0  0  0  0999 V2000
  -51.6239   -1.8012   68.7262 C   0  0  0  0  0  0  0  0  0  0  0  0
  -51.6113   -2.7900   67.5086 C   0  0  0  0  0  0  0  0  0  0  0  0
  -52.5829   -3.8320   67.5824 O   0  0  0  0  0  0  0  0  0  0  0  0
  -53.7737   -3.5685   66.8767 C   0  0  0  0  0  0  0  0  0  0  0  0
  -54.4137   -2.2591   67.2567 C   0  0  0  0  0  0  0  0  0  0  0  0
  -54.1700   -1.7128   68.6621 C   0  0  0  0  0  0  0  0  0  0  0  0
  -54.2473   -2.6482   69.9387 C   0  0  0  0  0  0  0  0  0  0  0  0
  -52.8838   -3.0124   70.5687 C   0  0  0  0  0  0  0  0  0  0  0  0
  -51.6909   -2.6301   69.9816 C   0  0  0  0  0  0  0  0  0  0  0  0
  -50.6480   -2.9726   70.7921 N   0  0  0  0  0  0  0  0  0  0  0  0
  -51.1327   -3.4161   71.9975 C   0  0  0  0  0  0  0  0  0  0  0  0
  -50.4354   -3.7088   73.1769 C   0  0  0  0  0  0  0  0  0  0  0  0
  -51.1824   -4.0535   74.3029 C   0  0  0  0  0  0  0  0  0  0  0  0
  -52.5722   -4.1118   74.2421 C   0  0  0  0  0  0  0  0  0  0  0  0
  -53.2536   -3.8317   73.0469 C   0  0  0  0  0  0  0  0  0  0  0  0
  -52.5285   -3.4733   71.8897 C   0  0  0  0  0  0  0  0  0  0  0  0
  -54.9045   -1.8308   70.9725 N   0  0  0  0  0  0  0  0  0  0  0  0
  -56.3547   -2.0094   70.9008 C   0  0  0  0  0  0  0  0  0  0  0  0
  -54.4713   -0.4119   70.9349 C   0  0  0  0  0  0  0  0  0  0  0  0
  -53.1089   -0.0924   70.1937 C   0  0  0  0  0  0  0  0  0  0  0  0
  -52.8988   -0.8539   68.8116 C   0  0  0  0  0  0  0  0  0  0  0  0
  -49.6768   -2.7395   70.6167 H   0  0  0  0  0  0  0  0  0  0  0  0
  -50.2824   -1.0624   68.5721 C   0  0  0  0  0  0  0  0  0  0  0  0
  -49.1837   -1.5008   68.9050 O   0  0  0  0  0  0  0  0  0  0  0  0
  -49.2679    0.8566   67.6704 C   0  0  0  0  0  0  0  0  0  0  0  0
  -50.4424    0.0440   67.7813 O   0  0  0  0  0  0  0  0  0  0  0  0
 25 26  1  0  0  0
 26 23  1  0  0  0
 23 24  2  0  0  0
  1  2  1  0  0  0
  2  3  1  0  0  0
  3  4  1  0  0  0
  4  5  1  0  0  0
  5  6  1  0  0  0
  6  7  1  0  0  0
  7  8  1  0  0  0
  8  9  2  0  0  0
  1  9  1  0  0  0
  9 10  1  0  0  0
 10 11  1  0  0  0
 11 12  2  0  0  0
 12 13  1  0  0  0
 13 14  2  0  0  0
 14 15  1  0  0  0
 15 16  2  0  0  0
  8 16  1  0  0  0
 11 16  1  0  0  0
  7 17  1  0  0  0
 17 19  1  0  0  0
 19 20  1  0  0  0
 20 21  1  0  0  0
  6 21  1  0  0  0
  1 21  1  0  0  0
 23  1  1  0  0  0
 17 18  1  0  0  0
 10 22  1  0  0  0
M  END
> <minimizedAffinity>
-7.73945

$$$$
ligand_39


 26 30  0  0  0  0  0  0  0  0999 V2000
  -54.1744   -1.0205   70.5101 C   0  0  0  0  0  0  0  0  0  0  0  0
  -54.7855    0.2695   71.1605 C   0  0  0  0  0  0  0  0  0  0  0  0
  -53.8459    1.3181   71.3905 O   0  0  0  0  0  0  0  0  0  0  0  0
  -53.8086    2.2983   70.3788 C   0  0  0  0  0  0  0  0  0  0  0  0
  -53.5931    1.7256   69.0025 C   0  0  0  0  0  0  0  0  0  0  0  0
  -52.8359    0.4051   68.8760 C   0  0  0  0  0  0  0  0  0  0  0  0
  -51.5111    0.1285   69.7001 C   0  0  0  0  0  0  0  0  0  0  0  0
  -51.6691   -0.8475   70.8880 C   0  0  0  0  0  0  0  0  0  0  0  0
  -52.9065   -1.3457   71.2547 C   0  0  0  0  0  0  0  0  0  0  0  0
  -52.7557   -2.2678   72.2490 N   0  0  0  0  0  0  0  0  0  0  0  0
  -51.4203   -2.5294   72.4307 C   0  0  0  0  0  0  0  0  0  0  0  0
  -50.8120   -3.5186   73.2145 C   0  0  0  0  0  0  0  0  0  0  0  0
  -49.4238   -3.6342   73.1497 C   0  0  0  0  0  0  0  0  0  0  0  0
  -48.6778   -2.7834   72.3384 C   0  0  0  0  0  0  0  0  0  0  0  0
  -49.3029   -1.7865   71.5723 C   0  0  0  0  0  0  0  0  0  0  0  0
  -50.7072   -1.6459   71.6098 C   0  0  0  0  0  0  0  0  0  0  0  0
  -50.6253   -0.5916   68.7696 N   0  0  0  0  0  0  0  0  0  0  0  0
  -49.8145    0.3635   68.0145 C   0  0  0  0  0  0  0  0  0  0  0  0
  -51.3617   -1.5593   67.9189 C   0  0  0  0  0  0  0  0  0  0  0  0
  -52.7904   -2.0215   68.4218 C   0  0  0  0  0  0  0  0  0  0  0  0
  -53.7115   -0.8576   68.9971 C   0  0  0  0  0  0  0  0  0  0  0  0
  -53.5065   -2.8250   72.6416 H   0  0  0  0  0  0  0  0  0  0  0  0
  -55.2814   -2.0661   70.7353 C   0  0  0  0  0  0  0  0  0  0  0  0
  -55.5649   -2.9821   69.9667 O   0  0  0  0  0  0  0  0  0  0  0  0
  -56.3060   -3.2195   72.5086 C   0  0  0  0  0  0  0  0  0  0  0  0
  -55.7401   -1.9962   72.0235 O   0  0  0  0  0  0  0  0  0  0  0  0
 25 26  1  0  0  0
 26 23  1  0  0  0
 23 24  2  0  0  0
  1  2  1  0  0  0
  2  3  1  0  0  0
  3  4  1  0  0  0
  4  5  1  0  0  0
  5  6  1  0  0  0
  6  7  1  0  0  0
  7  8  1  0  0  0
  8  9  2  0  0  0
  1  9  1  0  0  0
  9 10  1  0  0  0
 10 11  1  0  0  0
 11 12  2  0  0  0
 12 13  1  0  0  0
 13 14  2  0  0  0
 14 15  1  0  0  0
 15 16  2  0  0  0
  8 16  1  0  0  0
 11 16  1  0  0  0
  7 17  1  0  0  0
 17 19  1  0  0  0
 19 20  1  0  0  0
 20 21  1  0  0  0
  6 21  1  0  0  0
  1 21  1  0  0  0
 23  1  1  0  0  0
 17 18  1  0  0  0
 10 22  1  0  0  0
M  END
> <minimizedAffinity>
-7.70561

$$$$
ligand_39


 26 30  0  0  0  0  0  0  0  0999 V2000
  -54.6076   -2.2010   71.3042 C   0  0  0  0  0  0  0  0  0  0  0  0
  -55.6543   -2.6406   70.2218 C   0  0  0  0  0  0  0  0  0  0  0  0
  -55.6025   -1.8904   69.0095 O   0  0  0  0  0  0  0  0  0  0  0  0
  -54.8467   -2.4929   67.9841 C   0  0  0  0  0  0  0  0  0  0  0  0
  -53.4479   -2.8547   68.4094 C   0  0  0  0  0  0  0  0  0  0  0  0
  -52.7933   -2.0382   69.5220 C   0  0  0  0  0  0  0  0  0  0  0  0
  -52.8871   -0.4568   69.5528 C   0  0  0  0  0  0  0  0  0  0  0  0
  -53.8527    0.1227   70.6114 C   0  0  0  0  0  0  0  0  0  0  0  0
  -54.6491   -0.6981   71.3898 C   0  0  0  0  0  0  0  0  0  0  0  0
  -55.3149    0.0501   72.3165 N   0  0  0  0  0  0  0  0  0  0  0  0
  -54.8398    1.3379   72.2905 C   0  0  0  0  0  0  0  0  0  0  0  0
  -55.1060    2.3960   73.1694 C   0  0  0  0  0  0  0  0  0  0  0  0
  -54.4128    3.5904   72.9745 C   0  0  0  0  0  0  0  0  0  0  0  0
  -53.4981    3.7183   71.9326 C   0  0  0  0  0  0  0  0  0  0  0  0
  -53.2564    2.6526   71.0510 C   0  0  0  0  0  0  0  0  0  0  0  0
  -53.9364    1.4274   71.2234 C   0  0  0  0  0  0  0  0  0  0  0  0
  -51.5600   -0.0037   70.0028 N   0  0  0  0  0  0  0  0  0  0  0  0
  -50.6822    0.1896   68.8486 C   0  0  0  0  0  0  0  0  0  0  0  0
  -50.9867   -0.8811   71.0535 C   0  0  0  0  0  0  0  0  0  0  0  0
  -51.9940   -1.8102   71.8471 C   0  0  0  0  0  0  0  0  0  0  0  0
  -53.0928   -2.5334   70.9506 C   0  0  0  0  0  0  0  0  0  0  0  0
  -55.9083   -0.3263   73.0475 H   0  0  0  0  0  0  0  0  0  0  0  0
  -55.1357   -2.8842   72.5784 C   0  0  0  0  0  0  0  0  0  0  0  0
  -56.1764   -2.5948   73.1644 O   0  0  0  0  0  0  0  0  0  0  0  0
  -54.0436   -4.1875   74.2012 C   0  0  0  0  0  0  0  0  0  0  0  0
  -54.4241   -4.0268   72.8295 O   0  0  0  0  0  0  0  0  0  0  0  0
 25 26  1  0  0  0
 26 23  1  0  0  0
 23 24  2  0  0  0
  1  2  1  0  0  0
  2  3  1  0  0  0
  3  4  1  0  0  0
  4  5  1  0  0  0
  5  6  1  0  0  0
  6  7  1  0  0  0
  7  8  1  0  0  0
  8  9  2  0  0  0
  1  9  1  0  0  0
  9 10  1  0  0  0
 10 11  1  0  0  0
 11 12  2  0  0  0
 12 13  1  0  0  0
 13 14  2  0  0  0
 14 15  1  0  0  0
 15 16  2  0  0  0
  8 16  1  0  0  0
 11 16  1  0  0  0
  7 17  1  0  0  0
 17 19  1  0  0  0
 19 20  1  0  0  0
 20 21  1  0  0  0
  6 21  1  0  0  0
  1 21  1  0  0  0
 23  1  1  0  0  0
 17 18  1  0  0  0
 10 22  1  0  0  0
M  END
> <minimizedAffinity>
-7.04407

$$$$
ligand_39


 26 30  0  0  0  0  0  0  0  0999 V2000
  -54.5517   -1.6054   70.5803 C   0  0  0  0  0  0  0  0  0  0  0  0
  -55.0049   -0.1378   70.8982 C   0  0  0  0  0  0  0  0  0  0  0  0
  -54.0274    0.6496   71.5763 O   0  0  0  0  0  0  0  0  0  0  0  0
  -53.2527    1.4695   70.7317 C   0  0  0  0  0  0  0  0  0  0  0  0
  -52.5948    0.7133   69.6075 C   0  0  0  0  0  0  0  0  0  0  0  0
  -52.2699   -0.7641   69.8189 C   0  0  0  0  0  0  0  0  0  0  0  0
  -51.6151   -1.2832   71.1652 C   0  0  0  0  0  0  0  0  0  0  0  0
  -52.5717   -2.0484   72.1075 C   0  0  0  0  0  0  0  0  0  0  0  0
  -53.9216   -2.1650   71.8283 C   0  0  0  0  0  0  0  0  0  0  0  0
  -54.5138   -2.9799   72.7486 N   0  0  0  0  0  0  0  0  0  0  0  0
  -53.5484   -3.5577   73.5353 C   0  0  0  0  0  0  0  0  0  0  0  0
  -53.6773   -4.5788   74.4859 C   0  0  0  0  0  0  0  0  0  0  0  0
  -52.5125   -5.0573   75.0851 C   0  0  0  0  0  0  0  0  0  0  0  0
  -51.2711   -4.5236   74.7498 C   0  0  0  0  0  0  0  0  0  0  0  0
  -51.1623   -3.4887   73.8071 C   0  0  0  0  0  0  0  0  0  0  0  0
  -52.3210   -2.9851   73.1769 C   0  0  0  0  0  0  0  0  0  0  0  0
  -50.6414   -2.3061   70.7473 N   0  0  0  0  0  0  0  0  0  0  0  0
  -49.3421   -1.6829   70.4952 C   0  0  0  0  0  0  0  0  0  0  0  0
  -51.1380   -3.1366   69.6222 C   0  0  0  0  0  0  0  0  0  0  0  0
  -52.7017   -3.1540   69.3729 C   0  0  0  0  0  0  0  0  0  0  0  0
  -53.4162   -1.7351   69.4740 C   0  0  0  0  0  0  0  0  0  0  0  0
  -55.4831   -3.2765   72.7216 H   0  0  0  0  0  0  0  0  0  0  0  0
  -55.8799   -2.2965   70.2232 C   0  0  0  0  0  0  0  0  0  0  0  0
  -56.4521   -3.1408   70.9088 O   0  0  0  0  0  0  0  0  0  0  0  0
  -56.6274   -2.4863   68.0027 C   0  0  0  0  0  0  0  0  0  0  0  0
  -56.4711   -1.6617   69.1637 O   0  0  0  0  0  0  0  0  0  0  0  0
 25 26  1  0  0  0
 26 23  1  0  0  0
 23 24  2  0  0  0
  1  2  1  0  0  0
  2  3  1  0  0  0
  3  4  1  0  0  0
  4  5  1  0  0  0
  5  6  1  0  0  0
  6  7  1  0  0  0
  7  8  1  0  0  0
  8  9  2  0  0  0
  1  9  1  0  0  0
  9 10  1  0  0  0
 10 11  1  0  0  0
 11 12  2  0  0  0
 12 13  1  0  0  0
 13 14  2  0  0  0
 14 15  1  0  0  0
 15 16  2  0  0  0
  8 16  1  0  0  0
 11 16  1  0  0  0
  7 17  1  0  0  0
 17 19  1  0  0  0
 19 20  1  0  0  0
 20 21  1  0  0  0
  6 21  1  0  0  0
  1 21  1  0  0  0
 23  1  1  0  0  0
 17 18  1  0  0  0
 10 22  1  0  0  0
M  END
> <minimizedAffinity>
-6.98988

$$$$
ligand_39


 26 30  0  0  0  0  0  0  0  0999 V2000
  -52.7718   -2.3342   69.0876 C   0  0  0  0  0  0  0  0  0  0  0  0
  -53.4128   -3.2684   68.0028 C   0  0  0  0  0  0  0  0  0  0  0  0
  -54.8386   -3.2387   67.9641 O   0  0  0  0  0  0  0  0  0  0  0  0
  -55.3764   -2.3689   66.9947 C   0  0  0  0  0  0  0  0  0  0  0  0
  -54.8488   -0.9620   67.0988 C   0  0  0  0  0  0  0  0  0  0  0  0
  -54.3829   -0.4606   68.4643 C   0  0  0  0  0  0  0  0  0  0  0  0
  -55.2267   -0.7319   69.7777 C   0  0  0  0  0  0  0  0  0  0  0  0
  -54.6444   -1.8091   70.7207 C   0  0  0  0  0  0  0  0  0  0  0  0
  -53.5276   -2.5476   70.3724 C   0  0  0  0  0  0  0  0  0  0  0  0
  -53.1541   -3.3394   71.4190 N   0  0  0  0  0  0  0  0  0  0  0  0
  -53.8943   -3.0105   72.5275 C   0  0  0  0  0  0  0  0  0  0  0  0
  -53.7390   -3.4379   73.8527 C   0  0  0  0  0  0  0  0  0  0  0  0
  -54.5728   -2.8734   74.8176 C   0  0  0  0  0  0  0  0  0  0  0  0
  -55.5299   -1.9266   74.4626 C   0  0  0  0  0  0  0  0  0  0  0  0
  -55.6829   -1.5225   73.1266 C   0  0  0  0  0  0  0  0  0  0  0  0
  -54.8511   -2.0693   72.1254 C   0  0  0  0  0  0  0  0  0  0  0  0
  -55.1261    0.5114   70.5605 N   0  0  0  0  0  0  0  0  0  0  0  0
  -56.2122    1.4201   70.1934 C   0  0  0  0  0  0  0  0  0  0  0  0
  -53.7769    1.1247   70.4813 C   0  0  0  0  0  0  0  0  0  0  0  0
  -52.5838    0.1882   70.0262 C   0  0  0  0  0  0  0  0  0  0  0  0
  -52.9125   -0.7756   68.8026 C   0  0  0  0  0  0  0  0  0  0  0  0
  -52.3256   -3.9237   71.4370 H   0  0  0  0  0  0  0  0  0  0  0  0
  -51.3223   -2.8472   69.1578 C   0  0  0  0  0  0  0  0  0  0  0  0
  -50.6517   -3.2249   68.1998 O   0  0  0  0  0  0  0  0  0  0  0  0
  -49.5751   -1.8298   70.3566 C   0  0  0  0  0  0  0  0  0  0  0  0
  -50.7902   -2.5876   70.3925 O   0  0  0  0  0  0  0  0  0  0  0  0
 25 26  1  0  0  0
 26 23  1  0  0  0
 23 24  2  0  0  0
  1  2  1  0  0  0
  2  3  1  0  0  0
  3  4  1  0  0  0
  4  5  1  0  0  0
  5  6  1  0  0  0
  6  7  1  0  0  0
  7  8  1  0  0  0
  8  9  2  0  0  0
  1  9  1  0  0  0
  9 10  1  0  0  0
 10 11  1  0  0  0
 11 12  2  0  0  0
 12 13  1  0  0  0
 13 14  2  0  0  0
 14 15  1  0  0  0
 15 16  2  0  0  0
  8 16  1  0  0  0
 11 16  1  0  0  0
  7 17  1  0  0  0
 17 19  1  0  0  0
 19 20  1  0  0  0
 20 21  1  0  0  0
  6 21  1  0  0  0
  1 21  1  0  0  0
 23  1  1  0  0  0
 17 18  1  0  0  0
 10 22  1  0  0  0
M  END
> <minimizedAffinity>
-6.88938

$$$$
