ligand_51


 38 45  0  0  0  0  0  0  0  0999 V2000
  -51.2251   -8.2023   76.8816 C   0  0  0  0  0  0  0  0  0  0  0  0
  -50.3719   -7.1175   76.2055 C   0  0  0  0  0  0  0  0  0  0  0  0
  -48.8755   -7.5279   76.3217 C   0  0  0  0  0  0  0  0  0  0  0  0
  -47.8557   -6.3894   76.5094 C   0  0  0  0  0  0  0  0  0  0  0  0
  -47.4049   -5.7434   75.1987 C   0  0  0  0  0  0  0  0  0  0  0  0
  -48.4243   -4.8521   74.5468 C   0  0  0  0  0  0  0  0  0  0  0  0
  -48.2548   -4.6297   73.2167 N   0  0  0  0  0  0  0  0  0  0  0  0
  -49.1224   -3.7889   72.5872 C   0  0  0  0  0  0  0  0  0  0  0  0
  -50.1633   -3.0975   73.2004 C   0  0  0  0  0  0  0  0  0  0  0  0
  -50.3122   -3.3671   74.5764 C   0  0  0  0  0  0  0  0  0  0  0  0
  -49.4460   -4.2595   75.2869 C   0  0  0  0  0  0  0  0  0  0  0  0
  -49.6699   -4.6548   76.7677 C   0  0  0  0  0  0  0  0  0  0  0  0
  -50.7974   -5.7239   76.7737 C   0  0  0  0  0  0  0  0  0  0  0  0
  -50.0605   -3.4455   77.5040 N   0  0  0  0  0  0  0  0  0  0  0  0
  -49.7049   -3.2776   78.9048 C   0  0  0  0  0  0  0  0  0  0  0  0
  -48.4293   -3.9570   79.4086 C   0  0  0  0  0  0  0  0  0  0  0  0
  -47.5675   -4.4963   78.2670 C   0  0  0  0  0  0  0  0  0  0  0  0
  -48.4945   -5.3978   77.4675 C   0  0  0  0  0  0  0  0  0  0  0  0
  -51.0383   -3.2156   77.3480 H   0  0  0  0  0  0  0  0  0  0  0  0
  -50.9945   -2.1399   72.4245 C   0  0  0  0  0  0  0  0  0  0  0  0
  -50.4329   -1.0558   71.7485 C   0  0  0  0  0  0  0  0  0  0  0  0
  -51.2328   -0.2720   70.8889 C   0  0  0  0  0  0  0  0  0  0  0  0
  -52.5968   -0.5369   70.7058 C   0  0  0  0  0  0  0  0  0  0  0  0
  -53.0917   -1.6093   71.4728 C   0  0  0  0  0  0  0  0  0  0  0  0
  -52.3157   -2.4002   72.2998 N   0  0  0  0  0  0  0  0  0  0  0  0
  -54.5686   -1.9174   71.5002 C   0  0  0  0  0  0  0  0  0  0  0  0
  -55.3697   -1.3218   70.3309 C   0  0  0  0  0  0  0  0  0  0  0  0
  -55.1566   -2.1748   69.0491 C   0  0  0  0  0  0  0  0  0  0  0  0
  -54.5925   -1.3993   67.8504 C   0  0  0  0  0  0  0  0  0  0  0  0
  -55.7179   -0.6763   67.0722 C   0  0  0  0  0  0  0  0  0  0  0  0
  -53.3991   -0.4884   68.2655 C   0  0  0  0  0  0  0  0  0  0  0  0
  -53.4990    0.2106   69.6780 C   0  0  0  0  0  0  0  0  0  0  0  0
  -53.0897    1.6067   69.4227 N   0  0  0  0  0  0  0  0  0  0  0  0
  -53.5787    2.6424   70.3194 C   0  0  0  0  0  0  0  0  0  0  0  0
  -55.0786    2.5424   70.5683 C   0  0  0  0  0  0  0  0  0  0  0  0
  -55.4070    1.1623   71.1406 C   0  0  0  0  0  0  0  0  0  0  0  0
  -54.9919    0.1451   70.0801 C   0  0  0  0  0  0  0  0  0  0  0  0
  -52.0911    1.6891   69.2634 H   0  0  0  0  0  0  0  0  0  0  0  0
  1  2  1  0  0  0
  2  3  1  0  0  0
  3  4  1  0  0  0
  4  5  1  0  0  0
  5  6  1  0  0  0
  6  7  2  0  0  0
  7  8  1  0  0  0
  8  9  2  0  0  0
  9 20  1  0  0  0
 20 21  2  0  0  0
 21 22  1  0  0  0
 22 23  2  0  0  0
 23 24  1  0  0  0
 24 25  2  0  0  0
 20 25  1  0  0  0
 24 26  1  0  0  0
 26 27  1  0  0  0
 27 28  1  0  0  0
 28 29  1  0  0  0
 29 31  1  0  0  0
 31 32  1  0  0  0
 23 32  1  0  0  0
 32 33  1  0  0  0
 33 34  1  0  0  0
 34 35  1  0  0  0
 35 36  1  0  0  0
 36 37  1  0  0  0
 27 37  1  0  0  0
 32 37  1  0  0  0
  9 10  1  0  0  0
 10 11  2  0  0  0
  6 11  1  0  0  0
 11 12  1  0  0  0
 12 13  1  0  0  0
  2 13  1  0  0  0
 12 14  1  0  0  0
 14 15  1  0  0  0
 15 16  1  0  0  0
 16 17  1  0  0  0
 17 18  1  0  0  0
  4 18  1  0  0  0
 12 18  1  0  0  0
 29 30  1  0  0  0
 33 38  1  0  0  0
 14 19  1  0  0  0
M  END
> <minimizedAffinity>
-8.62120

$$$$
ligand_51


 38 45  0  0  0  0  0  0  0  0999 V2000
  -50.5293   -8.4730   77.1243 C   0  0  0  0  0  0  0  0  0  0  0  0
  -49.9638   -7.2566   76.3744 C   0  0  0  0  0  0  0  0  0  0  0  0
  -48.4148   -7.3924   76.3180 C   0  0  0  0  0  0  0  0  0  0  0  0
  -47.5996   -6.0891   76.4088 C   0  0  0  0  0  0  0  0  0  0  0  0
  -47.4203   -5.3795   75.0661 C   0  0  0  0  0  0  0  0  0  0  0  0
  -48.6484   -4.6879   74.5446 C   0  0  0  0  0  0  0  0  0  0  0  0
  -48.6708   -4.4455   73.2075 N   0  0  0  0  0  0  0  0  0  0  0  0
  -49.7391   -3.7763   72.6907 C   0  0  0  0  0  0  0  0  0  0  0  0
  -50.8114   -3.2790   73.4257 C   0  0  0  0  0  0  0  0  0  0  0  0
  -50.7554   -3.5641   74.8056 C   0  0  0  0  0  0  0  0  0  0  0  0
  -49.6702   -4.2838   75.4022 C   0  0  0  0  0  0  0  0  0  0  0  0
  -49.6534   -4.7054   76.8925 C   0  0  0  0  0  0  0  0  0  0  0  0
  -50.5646   -5.9586   77.0072 C   0  0  0  0  0  0  0  0  0  0  0  0
  -50.1685   -3.5817   77.6858 N   0  0  0  0  0  0  0  0  0  0  0  0
  -49.6943   -3.3460   79.0409 C   0  0  0  0  0  0  0  0  0  0  0  0
  -48.2700   -3.7840   79.3901 C   0  0  0  0  0  0  0  0  0  0  0  0
  -47.4588   -4.1663   78.1520 C   0  0  0  0  0  0  0  0  0  0  0  0
  -48.2938   -5.2229   77.4466 C   0  0  0  0  0  0  0  0  0  0  0  0
  -51.1828   -3.5310   77.6425 H   0  0  0  0  0  0  0  0  0  0  0  0
  -51.8812   -2.4892   72.7611 C   0  0  0  0  0  0  0  0  0  0  0  0
  -53.2274   -2.6444   73.0946 C   0  0  0  0  0  0  0  0  0  0  0  0
  -54.1903   -1.7592   72.5630 C   0  0  0  0  0  0  0  0  0  0  0  0
  -53.8370   -0.7284   71.6818 C   0  0  0  0  0  0  0  0  0  0  0  0
  -52.4685   -0.6843   71.3529 C   0  0  0  0  0  0  0  0  0  0  0  0
  -51.5111   -1.5287   71.8839 N   0  0  0  0  0  0  0  0  0  0  0  0
  -51.9613    0.2704   70.3001 C   0  0  0  0  0  0  0  0  0  0  0  0
  -52.9062    1.4426   69.9889 C   0  0  0  0  0  0  0  0  0  0  0  0
  -52.8006    2.5227   71.1017 C   0  0  0  0  0  0  0  0  0  0  0  0
  -54.1250    2.8467   71.8072 C   0  0  0  0  0  0  0  0  0  0  0  0
  -54.9468    3.8840   71.0050 C   0  0  0  0  0  0  0  0  0  0  0  0
  -54.9042    1.5531   72.1887 C   0  0  0  0  0  0  0  0  0  0  0  0
  -54.8318    0.3538   71.1639 C   0  0  0  0  0  0  0  0  0  0  0  0
  -56.2280   -0.1161   71.0547 N   0  0  0  0  0  0  0  0  0  0  0  0
  -56.6311   -0.7988   69.8352 C   0  0  0  0  0  0  0  0  0  0  0  0
  -56.1971   -0.0571   68.5769 C   0  0  0  0  0  0  0  0  0  0  0  0
  -54.6783    0.1238   68.5931 C   0  0  0  0  0  0  0  0  0  0  0  0
  -54.3569    0.9671   69.8248 C   0  0  0  0  0  0  0  0  0  0  0  0
  -56.5276   -0.6193   71.8831 H   0  0  0  0  0  0  0  0  0  0  0  0
  1  2  1  0  0  0
  2  3  1  0  0  0
  3  4  1  0  0  0
  4  5  1  0  0  0
  5  6  1  0  0  0
  6  7  2  0  0  0
  7  8  1  0  0  0
  8  9  2  0  0  0
  9 20  1  0  0  0
 20 21  2  0  0  0
 21 22  1  0  0  0
 22 23  2  0  0  0
 23 24  1  0  0  0
 24 25  2  0  0  0
 20 25  1  0  0  0
 24 26  1  0  0  0
 26 27  1  0  0  0
 27 28  1  0  0  0
 28 29  1  0  0  0
 29 31  1  0  0  0
 31 32  1  0  0  0
 23 32  1  0  0  0
 32 33  1  0  0  0
 33 34  1  0  0  0
 34 35  1  0  0  0
 35 36  1  0  0  0
 36 37  1  0  0  0
 27 37  1  0  0  0
 32 37  1  0  0  0
  9 10  1  0  0  0
 10 11  2  0  0  0
  6 11  1  0  0  0
 11 12  1  0  0  0
 12 13  1  0  0  0
  2 13  1  0  0  0
 12 14  1  0  0  0
 14 15  1  0  0  0
 15 16  1  0  0  0
 16 17  1  0  0  0
 17 18  1  0  0  0
  4 18  1  0  0  0
 12 18  1  0  0  0
 29 30  1  0  0  0
 33 38  1  0  0  0
 14 19  1  0  0  0
M  END
> <minimizedAffinity>
-7.90415

$$$$
ligand_51


 38 45  0  0  0  0  0  0  0  0999 V2000
  -49.1717   -3.3970   79.0531 C   0  0  0  0  0  0  0  0  0  0  0  0
  -49.8996   -4.1139   77.9050 C   0  0  0  0  0  0  0  0  0  0  0  0
  -49.9593   -5.6331   78.2355 C   0  0  0  0  0  0  0  0  0  0  0  0
  -49.8450   -6.6072   77.0482 C   0  0  0  0  0  0  0  0  0  0  0  0
  -51.1745   -6.8776   76.3427 C   0  0  0  0  0  0  0  0  0  0  0  0
  -51.6826   -5.7483   75.4913 C   0  0  0  0  0  0  0  0  0  0  0  0
  -53.0150   -5.7593   75.2236 N   0  0  0  0  0  0  0  0  0  0  0  0
  -53.5188   -4.7856   74.4147 C   0  0  0  0  0  0  0  0  0  0  0  0
  -52.7743   -3.7839   73.7987 C   0  0  0  0  0  0  0  0  0  0  0  0
  -51.3999   -3.8008   74.1137 C   0  0  0  0  0  0  0  0  0  0  0  0
  -50.8172   -4.7846   74.9763 C   0  0  0  0  0  0  0  0  0  0  0  0
  -49.3349   -4.7450   75.4238 C   0  0  0  0  0  0  0  0  0  0  0  0
  -49.2427   -3.6818   76.5529 C   0  0  0  0  0  0  0  0  0  0  0  0
  -48.5208   -4.3755   74.2584 N   0  0  0  0  0  0  0  0  0  0  0  0
  -47.1618   -4.8734   74.1097 C   0  0  0  0  0  0  0  0  0  0  0  0
  -46.8216   -6.2298   74.7314 C   0  0  0  0  0  0  0  0  0  0  0  0
  -48.0669   -6.9881   75.1911 C   0  0  0  0  0  0  0  0  0  0  0  0
  -48.7911   -6.0268   76.1199 C   0  0  0  0  0  0  0  0  0  0  0  0
  -48.5626   -3.3760   74.0784 H   0  0  0  0  0  0  0  0  0  0  0  0
  -53.4237   -2.8244   72.8673 C   0  0  0  0  0  0  0  0  0  0  0  0
  -54.8115   -2.7318   72.7536 C   0  0  0  0  0  0  0  0  0  0  0  0
  -55.3868   -1.6959   71.9861 C   0  0  0  0  0  0  0  0  0  0  0  0
  -54.5989   -0.7567   71.3071 C   0  0  0  0  0  0  0  0  0  0  0  0
  -53.2110   -0.9624   71.4273 C   0  0  0  0  0  0  0  0  0  0  0  0
  -52.6335   -1.9573   72.1944 N   0  0  0  0  0  0  0  0  0  0  0  0
  -52.2384   -0.1279   70.6306 C   0  0  0  0  0  0  0  0  0  0  0  0
  -52.8170    1.1902   70.0905 C   0  0  0  0  0  0  0  0  0  0  0  0
  -52.8837    2.2487   71.2268 C   0  0  0  0  0  0  0  0  0  0  0  0
  -54.2858    2.8136   71.4940 C   0  0  0  0  0  0  0  0  0  0  0  0
  -54.6175    3.9704   70.5210 C   0  0  0  0  0  0  0  0  0  0  0  0
  -55.3582    1.6855   71.5536 C   0  0  0  0  0  0  0  0  0  0  0  0
  -55.1741    0.4791   70.5513 C   0  0  0  0  0  0  0  0  0  0  0  0
  -56.5228    0.2650   69.9882 N   0  0  0  0  0  0  0  0  0  0  0  0
  -56.6306   -0.3508   68.6748 C   0  0  0  0  0  0  0  0  0  0  0  0
  -55.6981    0.2846   67.6508 C   0  0  0  0  0  0  0  0  0  0  0  0
  -54.2557    0.1911   68.1515 C   0  0  0  0  0  0  0  0  0  0  0  0
  -54.2001    0.9796   69.4579 C   0  0  0  0  0  0  0  0  0  0  0  0
  -57.1523   -0.1655   70.6573 H   0  0  0  0  0  0  0  0  0  0  0  0
  1  2  1  0  0  0
  2  3  1  0  0  0
  3  4  1  0  0  0
  4  5  1  0  0  0
  5  6  1  0  0  0
  6  7  2  0  0  0
  7  8  1  0  0  0
  8  9  2  0  0  0
  9 20  1  0  0  0
 20 21  2  0  0  0
 21 22  1  0  0  0
 22 23  2  0  0  0
 23 24  1  0  0  0
 24 25  2  0  0  0
 20 25  1  0  0  0
 24 26  1  0  0  0
 26 27  1  0  0  0
 27 28  1  0  0  0
 28 29  1  0  0  0
 29 31  1  0  0  0
 31 32  1  0  0  0
 23 32  1  0  0  0
 32 33  1  0  0  0
 33 34  1  0  0  0
 34 35  1  0  0  0
 35 36  1  0  0  0
 36 37  1  0  0  0
 27 37  1  0  0  0
 32 37  1  0  0  0
  9 10  1  0  0  0
 10 11  2  0  0  0
  6 11  1  0  0  0
 11 12  1  0  0  0
 12 13  1  0  0  0
  2 13  1  0  0  0
 12 14  1  0  0  0
 14 15  1  0  0  0
 15 16  1  0  0  0
 16 17  1  0  0  0
 17 18  1  0  0  0
  4 18  1  0  0  0
 12 18  1  0  0  0
 29 30  1  0  0  0
 33 38  1  0  0  0
 14 19  1  0  0  0
M  END
> <minimizedAffinity>
-7.44840

$$$$
ligand_51


 38 45  0  0  0  0  0  0  0  0999 V2000
  -54.2547   -3.3950   67.0980 C   0  0  0  0  0  0  0  0  0  0  0  0
  -54.6339   -3.0108   68.5369 C   0  0  0  0  0  0  0  0  0  0  0  0
  -55.9495   -2.1812   68.4921 C   0  0  0  0  0  0  0  0  0  0  0  0
  -56.0929   -1.0500   69.5270 C   0  0  0  0  0  0  0  0  0  0  0  0
  -56.6292   -1.5175   70.8807 C   0  0  0  0  0  0  0  0  0  0  0  0
  -55.6501   -2.2903   71.7189 C   0  0  0  0  0  0  0  0  0  0  0  0
  -56.1892   -3.0838   72.6817 N   0  0  0  0  0  0  0  0  0  0  0  0
  -55.3438   -3.7678   73.5023 C   0  0  0  0  0  0  0  0  0  0  0  0
  -53.9540   -3.6994   73.4662 C   0  0  0  0  0  0  0  0  0  0  0  0
  -53.4366   -2.8765   72.4447 C   0  0  0  0  0  0  0  0  0  0  0  0
  -54.2751   -2.1519   71.5374 C   0  0  0  0  0  0  0  0  0  0  0  0
  -53.7218   -1.3401   70.3399 C   0  0  0  0  0  0  0  0  0  0  0  0
  -53.3848   -2.3699   69.2263 C   0  0  0  0  0  0  0  0  0  0  0  0
  -52.5264   -0.6192   70.7964 N   0  0  0  0  0  0  0  0  0  0  0  0
  -52.1696    0.6705   70.2254 C   0  0  0  0  0  0  0  0  0  0  0  0
  -53.2981    1.5597   69.6981 C   0  0  0  0  0  0  0  0  0  0  0  0
  -54.6799    1.0521   70.1104 C   0  0  0  0  0  0  0  0  0  0  0  0
  -54.7283   -0.3890   69.6287 C   0  0  0  0  0  0  0  0  0  0  0  0
  -51.7172   -1.2328   70.8404 H   0  0  0  0  0  0  0  0  0  0  0  0
  -53.1354   -4.4286   74.4703 C   0  0  0  0  0  0  0  0  0  0  0  0
  -53.3950   -5.7575   74.8083 C   0  0  0  0  0  0  0  0  0  0  0  0
  -52.4942   -6.4613   75.6368 C   0  0  0  0  0  0  0  0  0  0  0  0
  -51.3427   -5.8547   76.1564 C   0  0  0  0  0  0  0  0  0  0  0  0
  -51.1928   -4.4968   75.8145 C   0  0  0  0  0  0  0  0  0  0  0  0
  -52.0533   -3.8017   74.9851 N   0  0  0  0  0  0  0  0  0  0  0  0
  -50.0873   -3.6687   76.4222 C   0  0  0  0  0  0  0  0  0  0  0  0
  -48.9299   -4.4847   77.0209 C   0  0  0  0  0  0  0  0  0  0  0  0
  -47.9992   -5.0007   75.8879 C   0  0  0  0  0  0  0  0  0  0  0  0
  -47.8312   -6.5259   75.8423 C   0  0  0  0  0  0  0  0  0  0  0  0
  -46.7382   -6.9981   76.8309 C   0  0  0  0  0  0  0  0  0  0  0  0
  -49.1981   -7.2591   75.9843 C   0  0  0  0  0  0  0  0  0  0  0  0
  -50.2500   -6.6127   76.9691 C   0  0  0  0  0  0  0  0  0  0  0  0
  -50.7663   -7.7549   77.7506 N   0  0  0  0  0  0  0  0  0  0  0  0
  -51.3035   -7.4947   79.0770 C   0  0  0  0  0  0  0  0  0  0  0  0
  -50.3858   -6.6176   79.9198 C   0  0  0  0  0  0  0  0  0  0  0  0
  -50.1380   -5.2956   79.1913 C   0  0  0  0  0  0  0  0  0  0  0  0
  -49.4471   -5.6499   77.8764 C   0  0  0  0  0  0  0  0  0  0  0  0
  -51.3859   -8.3433   77.2035 H   0  0  0  0  0  0  0  0  0  0  0  0
  1  2  1  0  0  0
  2  3  1  0  0  0
  3  4  1  0  0  0
  4  5  1  0  0  0
  5  6  1  0  0  0
  6  7  2  0  0  0
  7  8  1  0  0  0
  8  9  2  0  0  0
  9 20  1  0  0  0
 20 21  2  0  0  0
 21 22  1  0  0  0
 22 23  2  0  0  0
 23 24  1  0  0  0
 24 25  2  0  0  0
 20 25  1  0  0  0
 24 26  1  0  0  0
 26 27  1  0  0  0
 27 28  1  0  0  0
 28 29  1  0  0  0
 29 31  1  0  0  0
 31 32  1  0  0  0
 23 32  1  0  0  0
 32 33  1  0  0  0
 33 34  1  0  0  0
 34 35  1  0  0  0
 35 36  1  0  0  0
 36 37  1  0  0  0
 27 37  1  0  0  0
 32 37  1  0  0  0
  9 10  1  0  0  0
 10 11  2  0  0  0
  6 11  1  0  0  0
 11 12  1  0  0  0
 12 13  1  0  0  0
  2 13  1  0  0  0
 12 14  1  0  0  0
 14 15  1  0  0  0
 15 16  1  0  0  0
 16 17  1  0  0  0
 17 18  1  0  0  0
  4 18  1  0  0  0
 12 18  1  0  0  0
 29 30  1  0  0  0
 33 38  1  0  0  0
 14 19  1  0  0  0
M  END
> <minimizedAffinity>
-7.14629

$$$$
ligand_51


 38 45  0  0  0  0  0  0  0  0999 V2000
  -49.2162   -3.5213   79.0902 C   0  0  0  0  0  0  0  0  0  0  0  0
  -49.9204   -4.1513   77.8782 C   0  0  0  0  0  0  0  0  0  0  0  0
  -50.1369   -5.6644   78.1693 C   0  0  0  0  0  0  0  0  0  0  0  0
  -50.0242   -6.6252   76.9711 C   0  0  0  0  0  0  0  0  0  0  0  0
  -51.3187   -6.7642   76.1687 C   0  0  0  0  0  0  0  0  0  0  0  0
  -51.6633   -5.5802   75.3098 C   0  0  0  0  0  0  0  0  0  0  0  0
  -52.9690   -5.4678   74.9497 N   0  0  0  0  0  0  0  0  0  0  0  0
  -53.3263   -4.4399   74.1300 C   0  0  0  0  0  0  0  0  0  0  0  0
  -52.4544   -3.4987   73.5902 C   0  0  0  0  0  0  0  0  0  0  0  0
  -51.1129   -3.6434   73.9997 C   0  0  0  0  0  0  0  0  0  0  0  0
  -50.6820   -4.6893   74.8783 C   0  0  0  0  0  0  0  0  0  0  0  0
  -49.2377   -4.7897   75.4287 C   0  0  0  0  0  0  0  0  0  0  0  0
  -49.1332   -3.7575   76.5853 C   0  0  0  0  0  0  0  0  0  0  0  0
  -48.3132   -4.4753   74.3316 N   0  0  0  0  0  0  0  0  0  0  0  0
  -46.9961   -5.0900   74.2666 C   0  0  0  0  0  0  0  0  0  0  0  0
  -46.8217   -6.4814   74.8797 C   0  0  0  0  0  0  0  0  0  0  0  0
  -48.1585   -7.1329   75.2342 C   0  0  0  0  0  0  0  0  0  0  0  0
  -48.8598   -6.1261   76.1318 C   0  0  0  0  0  0  0  0  0  0  0  0
  -48.2540   -3.4732   74.1718 H   0  0  0  0  0  0  0  0  0  0  0  0
  -52.9487   -2.4699   72.6378 C   0  0  0  0  0  0  0  0  0  0  0  0
  -52.0967   -1.5231   72.0675 C   0  0  0  0  0  0  0  0  0  0  0  0
  -52.5720   -0.6752   71.0437 C   0  0  0  0  0  0  0  0  0  0  0  0
  -53.8962   -0.7387   70.5894 C   0  0  0  0  0  0  0  0  0  0  0  0
  -54.7002   -1.6790   71.2622 C   0  0  0  0  0  0  0  0  0  0  0  0
  -54.2427   -2.5321   72.2493 N   0  0  0  0  0  0  0  0  0  0  0  0
  -56.1827   -1.7563   70.9914 C   0  0  0  0  0  0  0  0  0  0  0  0
  -56.6274   -1.1110   69.6686 C   0  0  0  0  0  0  0  0  0  0  0  0
  -56.3020   -2.0561   68.4782 C   0  0  0  0  0  0  0  0  0  0  0  0
  -55.3925   -1.4431   67.4042 C   0  0  0  0  0  0  0  0  0  0  0  0
  -56.2084   -0.6010   66.3943 C   0  0  0  0  0  0  0  0  0  0  0  0
  -54.1757   -0.7034   68.0356 C   0  0  0  0  0  0  0  0  0  0  0  0
  -54.4426    0.0797   69.3807 C   0  0  0  0  0  0  0  0  0  0  0  0
  -53.7717    1.3808   69.1834 N   0  0  0  0  0  0  0  0  0  0  0  0
  -54.2574    2.5269   69.9360 C   0  0  0  0  0  0  0  0  0  0  0  0
  -55.7730    2.6707   69.8724 C   0  0  0  0  0  0  0  0  0  0  0  0
  -56.4265    1.3907   70.3960 C   0  0  0  0  0  0  0  0  0  0  0  0
  -55.9765    0.2650   69.4676 C   0  0  0  0  0  0  0  0  0  0  0  0
  -52.7615    1.3010   69.2316 H   0  0  0  0  0  0  0  0  0  0  0  0
  1  2  1  0  0  0
  2  3  1  0  0  0
  3  4  1  0  0  0
  4  5  1  0  0  0
  5  6  1  0  0  0
  6  7  2  0  0  0
  7  8  1  0  0  0
  8  9  2  0  0  0
  9 20  1  0  0  0
 20 21  2  0  0  0
 21 22  1  0  0  0
 22 23  2  0  0  0
 23 24  1  0  0  0
 24 25  2  0  0  0
 20 25  1  0  0  0
 24 26  1  0  0  0
 26 27  1  0  0  0
 27 28  1  0  0  0
 28 29  1  0  0  0
 29 31  1  0  0  0
 31 32  1  0  0  0
 23 32  1  0  0  0
 32 33  1  0  0  0
 33 34  1  0  0  0
 34 35  1  0  0  0
 35 36  1  0  0  0
 36 37  1  0  0  0
 27 37  1  0  0  0
 32 37  1  0  0  0
  9 10  1  0  0  0
 10 11  2  0  0  0
  6 11  1  0  0  0
 11 12  1  0  0  0
 12 13  1  0  0  0
  2 13  1  0  0  0
 12 14  1  0  0  0
 14 15  1  0  0  0
 15 16  1  0  0  0
 16 17  1  0  0  0
 17 18  1  0  0  0
  4 18  1  0  0  0
 12 18  1  0  0  0
 29 30  1  0  0  0
 33 38  1  0  0  0
 14 19  1  0  0  0
M  END
> <minimizedAffinity>
-6.87733

$$$$
