ligand_41


 30 32  0  0  0  0  0  0  0  0999 V2000
  -52.7957   -4.1295   73.4193 C   0  0  0  0  0  0  0  0  0  0  0  0
  -51.6858   -3.5023   72.8625 C   0  0  0  0  0  0  0  0  0  0  0  0
  -51.8355   -2.3591   72.0571 C   0  0  0  0  0  0  0  0  0  0  0  0
  -53.1440   -1.8377   71.8260 C   0  0  0  0  0  0  0  0  0  0  0  0
  -54.2736   -2.4717   72.4270 C   0  0  0  0  0  0  0  0  0  0  0  0
  -54.0737   -3.5891   73.2504 C   0  0  0  0  0  0  0  0  0  0  0  0
  -55.1054   -4.1640   73.9448 O   0  0  0  0  0  0  0  0  0  0  0  0
  -53.3413   -0.6867   70.8621 C   0  0  0  0  0  0  0  0  0  0  0  0
  -53.9265    0.4127   71.3948 C   0  0  0  0  0  0  0  0  0  0  0  0
  -54.2211    1.5985   70.6115 C   0  0  0  0  0  0  0  0  0  0  0  0
  -54.9439    1.4407   69.4825 C   0  0  0  0  0  0  0  0  0  0  0  0
  -53.9697    1.3104   68.3666 C   0  0  0  0  0  0  0  0  0  0  0  0
  -53.8819    2.1203   67.4583 O   0  0  0  0  0  0  0  0  0  0  0  0
  -53.1177    0.0743   68.4106 C   0  0  0  0  0  0  0  0  0  0  0  0
  -52.8614   -0.7779   69.4371 C   0  0  0  0  0  0  0  0  0  0  0  0
  -51.9061   -1.9539   69.2427 C   0  0  0  0  0  0  0  0  0  0  0  0
  -50.5660   -1.6064   69.8940 C   0  0  0  0  0  0  0  0  0  0  0  0
  -50.5800   -1.7683   71.4291 C   0  0  0  0  0  0  0  0  0  0  0  0
  -54.7023   -4.5894   74.7238 H   0  0  0  0  0  0  0  0  0  0  0  0
  -51.7784   -2.3747   67.8613 N   0  0  0  0  0  0  0  0  0  0  0  0
  -52.5069   -3.3758   67.2712 C   0  0  0  0  0  0  0  0  0  0  0  0
  -53.6208   -4.0173   68.0680 C   0  0  0  0  0  0  0  0  0  0  0  0
  -52.2292   -3.7427   66.1321 O   0  0  0  0  0  0  0  0  0  0  0  0
  -51.0659   -1.9664   67.2687 H   0  0  0  0  0  0  0  0  0  0  0  0
  -51.6301   -5.0191   75.2376 C   0  0  0  0  0  0  0  0  0  0  0  0
  -52.5706   -5.2498   74.1802 O   0  0  0  0  0  0  0  0  0  0  0  0
  -55.4907   -1.9077   72.1275 O   0  0  0  0  0  0  0  0  0  0  0  0
  -56.3471   -2.5467   71.1927 C   0  0  0  0  0  0  0  0  0  0  0  0
  -56.0940    0.7102   69.2969 O   0  0  0  0  0  0  0  0  0  0  0  0
  -56.5956    0.5890   67.9757 C   0  0  0  0  0  0  0  0  0  0  0  0
 25 26  1  0  0  0
 26  1  1  0  0  0
  1  2  2  0  0  0
  2  3  1  0  0  0
  3  4  2  0  0  0
  4  5  1  0  0  0
  5 27  1  0  0  0
 27 28  1  0  0  0
  5  6  2  0  0  0
  1  6  1  0  0  0
  6  7  1  0  0  0
  4  8  1  0  0  0
  8  9  2  0  0  0
  9 10  1  0  0  0
 10 11  2  0  0  0
 11 29  1  0  0  0
 29 30  1  0  0  0
 11 12  1  0  0  0
 12 13  2  0  0  0
 12 14  1  0  0  0
 14 15  2  0  0  0
  8 15  1  0  0  0
 15 16  1  0  0  0
 16 20  1  0  0  0
 20 21  1  0  0  0
 21 22  1  0  0  0
 21 23  2  0  0  0
 16 17  1  0  0  0
 17 18  1  0  0  0
  3 18  1  0  0  0
  7 19  1  0  0  0
 20 24  1  0  0  0
M  END
> <minimizedAffinity>
-7.20427

$$$$
ligand_41


 30 32  0  0  0  0  0  0  0  0999 V2000
  -49.9063   -2.9278   72.5264 C   0  0  0  0  0  0  0  0  0  0  0  0
  -49.4184   -2.2235   71.4305 C   0  0  0  0  0  0  0  0  0  0  0  0
  -50.2501   -1.3453   70.7127 C   0  0  0  0  0  0  0  0  0  0  0  0
  -51.6041   -1.1725   71.1304 C   0  0  0  0  0  0  0  0  0  0  0  0
  -52.0859   -1.8775   72.2749 C   0  0  0  0  0  0  0  0  0  0  0  0
  -51.2114   -2.7167   72.9803 C   0  0  0  0  0  0  0  0  0  0  0  0
  -51.5852   -3.3242   74.1500 O   0  0  0  0  0  0  0  0  0  0  0  0
  -52.5513   -0.3321   70.3001 C   0  0  0  0  0  0  0  0  0  0  0  0
  -53.1142    0.7118   70.9544 C   0  0  0  0  0  0  0  0  0  0  0  0
  -54.0694    1.6053   70.3252 C   0  0  0  0  0  0  0  0  0  0  0  0
  -55.1517    1.0530   69.7373 C   0  0  0  0  0  0  0  0  0  0  0  0
  -54.8159    0.8831   68.2987 C   0  0  0  0  0  0  0  0  0  0  0  0
  -55.3995    1.4703   67.4024 O   0  0  0  0  0  0  0  0  0  0  0  0
  -53.7225   -0.1071   68.0161 C   0  0  0  0  0  0  0  0  0  0  0  0
  -52.7839   -0.6367   68.8432 C   0  0  0  0  0  0  0  0  0  0  0  0
  -51.7321   -1.6012   68.2985 C   0  0  0  0  0  0  0  0  0  0  0  0
  -50.4100   -0.8463   68.1470 C   0  0  0  0  0  0  0  0  0  0  0  0
  -49.6628   -0.6613   69.4852 C   0  0  0  0  0  0  0  0  0  0  0  0
  -50.7629   -3.4719   74.6521 H   0  0  0  0  0  0  0  0  0  0  0  0
  -52.1431   -2.2832   67.0871 N   0  0  0  0  0  0  0  0  0  0  0  0
  -52.7270   -3.5232   67.0395 C   0  0  0  0  0  0  0  0  0  0  0  0
  -53.0940   -4.1936   68.3445 C   0  0  0  0  0  0  0  0  0  0  0  0
  -52.9163   -4.0677   65.9545 O   0  0  0  0  0  0  0  0  0  0  0  0
  -51.9464   -1.8749   66.1814 H   0  0  0  0  0  0  0  0  0  0  0  0
  -47.6660   -3.4073   72.9821 C   0  0  0  0  0  0  0  0  0  0  0  0
  -49.0388   -3.7783   73.1657 O   0  0  0  0  0  0  0  0  0  0  0  0
  -53.4075   -1.6604   72.5837 O   0  0  0  0  0  0  0  0  0  0  0  0
  -54.3530   -2.7004   72.3835 C   0  0  0  0  0  0  0  0  0  0  0  0
  -55.9873    0.0766   70.2263 O   0  0  0  0  0  0  0  0  0  0  0  0
  -56.6318    0.3167   71.4667 C   0  0  0  0  0  0  0  0  0  0  0  0
 25 26  1  0  0  0
 26  1  1  0  0  0
  1  2  2  0  0  0
  2  3  1  0  0  0
  3  4  2  0  0  0
  4  5  1  0  0  0
  5 27  1  0  0  0
 27 28  1  0  0  0
  5  6  2  0  0  0
  1  6  1  0  0  0
  6  7  1  0  0  0
  4  8  1  0  0  0
  8  9  2  0  0  0
  9 10  1  0  0  0
 10 11  2  0  0  0
 11 29  1  0  0  0
 29 30  1  0  0  0
 11 12  1  0  0  0
 12 13  2  0  0  0
 12 14  1  0  0  0
 14 15  2  0  0  0
  8 15  1  0  0  0
 15 16  1  0  0  0
 16 20  1  0  0  0
 20 21  1  0  0  0
 21 22  1  0  0  0
 21 23  2  0  0  0
 16 17  1  0  0  0
 17 18  1  0  0  0
  3 18  1  0  0  0
  7 19  1  0  0  0
 20 24  1  0  0  0
M  END
> <minimizedAffinity>
-6.78907

$$$$
ligand_41


 30 32  0  0  0  0  0  0  0  0999 V2000
  -54.7613    0.8699   67.6616 C   0  0  0  0  0  0  0  0  0  0  0  0
  -54.2945   -0.4114   67.3866 C   0  0  0  0  0  0  0  0  0  0  0  0
  -54.3210   -1.4129   68.3736 C   0  0  0  0  0  0  0  0  0  0  0  0
  -54.8469   -1.1037   69.6641 C   0  0  0  0  0  0  0  0  0  0  0  0
  -55.3511    0.2064   69.9263 C   0  0  0  0  0  0  0  0  0  0  0  0
  -55.3359    1.1635   68.9015 C   0  0  0  0  0  0  0  0  0  0  0  0
  -55.9122    2.3962   69.0608 O   0  0  0  0  0  0  0  0  0  0  0  0
  -54.7694   -2.1260   70.7784 C   0  0  0  0  0  0  0  0  0  0  0  0
  -55.9611   -2.4760   71.3187 C   0  0  0  0  0  0  0  0  0  0  0  0
  -56.0751   -3.4188   72.4163 C   0  0  0  0  0  0  0  0  0  0  0  0
  -55.3467   -3.1791   73.5270 C   0  0  0  0  0  0  0  0  0  0  0  0
  -54.0857   -3.9544   73.3862 C   0  0  0  0  0  0  0  0  0  0  0  0
  -53.7768   -4.8693   74.1320 O   0  0  0  0  0  0  0  0  0  0  0  0
  -53.1842   -3.5011   72.2736 C   0  0  0  0  0  0  0  0  0  0  0  0
  -53.4498   -2.7243   71.1912 C   0  0  0  0  0  0  0  0  0  0  0  0
  -52.3601   -2.4419   70.1587 C   0  0  0  0  0  0  0  0  0  0  0  0
  -52.6132   -3.3184   68.9304 C   0  0  0  0  0  0  0  0  0  0  0  0
  -53.7315   -2.7713   68.0175 C   0  0  0  0  0  0  0  0  0  0  0  0
  -56.1627    2.6943   68.1671 H   0  0  0  0  0  0  0  0  0  0  0  0
  -51.0155   -2.5700   70.6852 N   0  0  0  0  0  0  0  0  0  0  0  0
  -49.9960   -1.6784   70.4699 C   0  0  0  0  0  0  0  0  0  0  0  0
  -50.3096   -0.3940   69.7357 C   0  0  0  0  0  0  0  0  0  0  0  0
  -48.8593   -1.9470   70.8513 O   0  0  0  0  0  0  0  0  0  0  0  0
  -50.7494   -3.3970   71.2055 H   0  0  0  0  0  0  0  0  0  0  0  0
  -55.5794    1.5060   65.5682 C   0  0  0  0  0  0  0  0  0  0  0  0
  -54.6874    1.7975   66.6523 O   0  0  0  0  0  0  0  0  0  0  0  0
  -55.8161    0.4108   71.2034 O   0  0  0  0  0  0  0  0  0  0  0  0
  -55.0351    1.1619   72.1208 C   0  0  0  0  0  0  0  0  0  0  0  0
  -55.1917   -1.9963   74.2110 O   0  0  0  0  0  0  0  0  0  0  0  0
  -55.6553   -1.9401   75.5503 C   0  0  0  0  0  0  0  0  0  0  0  0
 25 26  1  0  0  0
 26  1  1  0  0  0
  1  2  2  0  0  0
  2  3  1  0  0  0
  3  4  2  0  0  0
  4  5  1  0  0  0
  5 27  1  0  0  0
 27 28  1  0  0  0
  5  6  2  0  0  0
  1  6  1  0  0  0
  6  7  1  0  0  0
  4  8  1  0  0  0
  8  9  2  0  0  0
  9 10  1  0  0  0
 10 11  2  0  0  0
 11 29  1  0  0  0
 29 30  1  0  0  0
 11 12  1  0  0  0
 12 13  2  0  0  0
 12 14  1  0  0  0
 14 15  2  0  0  0
  8 15  1  0  0  0
 15 16  1  0  0  0
 16 20  1  0  0  0
 20 21  1  0  0  0
 21 22  1  0  0  0
 21 23  2  0  0  0
 16 17  1  0  0  0
 17 18  1  0  0  0
  3 18  1  0  0  0
  7 19  1  0  0  0
 20 24  1  0  0  0
M  END
> <minimizedAffinity>
-6.71110

$$$$
ligand_41


 30 32  0  0  0  0  0  0  0  0999 V2000
  -55.4009    1.7538   67.0660 C   0  0  0  0  0  0  0  0  0  0  0  0
  -55.1777    0.4554   66.6194 C   0  0  0  0  0  0  0  0  0  0  0  0
  -55.0234   -0.6022   67.5337 C   0  0  0  0  0  0  0  0  0  0  0  0
  -55.1118   -0.3309   68.9323 C   0  0  0  0  0  0  0  0  0  0  0  0
  -55.3711    1.0005   69.3788 C   0  0  0  0  0  0  0  0  0  0  0  0
  -55.5520    2.0176   68.4304 C   0  0  0  0  0  0  0  0  0  0  0  0
  -55.9185    3.2857   68.7974 O   0  0  0  0  0  0  0  0  0  0  0  0
  -54.8237   -1.4273   69.9361 C   0  0  0  0  0  0  0  0  0  0  0  0
  -55.8360   -1.6989   70.7941 C   0  0  0  0  0  0  0  0  0  0  0  0
  -55.7261   -2.6972   71.8419 C   0  0  0  0  0  0  0  0  0  0  0  0
  -54.6830   -2.6006   72.6930 C   0  0  0  0  0  0  0  0  0  0  0  0
  -53.6108   -3.4798   72.1557 C   0  0  0  0  0  0  0  0  0  0  0  0
  -53.1990   -4.4669   72.7430 O   0  0  0  0  0  0  0  0  0  0  0  0
  -53.0304   -3.0406   70.8419 C   0  0  0  0  0  0  0  0  0  0  0  0
  -53.5147   -2.1726   69.9159 C   0  0  0  0  0  0  0  0  0  0  0  0
  -52.7506   -1.9261   68.6162 C   0  0  0  0  0  0  0  0  0  0  0  0
  -53.4460   -2.6920   67.4890 C   0  0  0  0  0  0  0  0  0  0  0  0
  -54.7158   -1.9834   66.9704 C   0  0  0  0  0  0  0  0  0  0  0  0
  -56.3853    3.6643   68.0300 H   0  0  0  0  0  0  0  0  0  0  0  0
  -51.3332   -2.2142   68.7136 N   0  0  0  0  0  0  0  0  0  0  0  0
  -50.3456   -1.2740   68.8603 C   0  0  0  0  0  0  0  0  0  0  0  0
  -50.7529    0.1681   69.0646 C   0  0  0  0  0  0  0  0  0  0  0  0
  -49.1662   -1.6130   68.8002 O   0  0  0  0  0  0  0  0  0  0  0  0
  -50.9985   -3.1641   68.6081 H   0  0  0  0  0  0  0  0  0  0  0  0
  -55.5187    2.2125   64.7786 C   0  0  0  0  0  0  0  0  0  0  0  0
  -55.5248    2.7350   66.1139 O   0  0  0  0  0  0  0  0  0  0  0  0
  -55.4170    1.1629   70.7428 O   0  0  0  0  0  0  0  0  0  0  0  0
  -54.3310    1.7883   71.4101 C   0  0  0  0  0  0  0  0  0  0  0  0
  -54.2066   -1.4854   73.3411 O   0  0  0  0  0  0  0  0  0  0  0  0
  -55.1288   -0.7095   74.0891 C   0  0  0  0  0  0  0  0  0  0  0  0
 25 26  1  0  0  0
 26  1  1  0  0  0
  1  2  2  0  0  0
  2  3  1  0  0  0
  3  4  2  0  0  0
  4  5  1  0  0  0
  5 27  1  0  0  0
 27 28  1  0  0  0
  5  6  2  0  0  0
  1  6  1  0  0  0
  6  7  1  0  0  0
  4  8  1  0  0  0
  8  9  2  0  0  0
  9 10  1  0  0  0
 10 11  2  0  0  0
 11 29  1  0  0  0
 29 30  1  0  0  0
 11 12  1  0  0  0
 12 13  2  0  0  0
 12 14  1  0  0  0
 14 15  2  0  0  0
  8 15  1  0  0  0
 15 16  1  0  0  0
 16 20  1  0  0  0
 20 21  1  0  0  0
 21 22  1  0  0  0
 21 23  2  0  0  0
 16 17  1  0  0  0
 17 18  1  0  0  0
  3 18  1  0  0  0
  7 19  1  0  0  0
 20 24  1  0  0  0
M  END
> <minimizedAffinity>
-6.33676

$$$$
ligand_41


 30 32  0  0  0  0  0  0  0  0999 V2000
  -51.1873   -4.2160   74.4723 C   0  0  0  0  0  0  0  0  0  0  0  0
  -52.5459   -4.2092   74.1736 C   0  0  0  0  0  0  0  0  0  0  0  0
  -52.9992   -3.8277   72.8980 C   0  0  0  0  0  0  0  0  0  0  0  0
  -52.0451   -3.4583   71.9027 C   0  0  0  0  0  0  0  0  0  0  0  0
  -50.6512   -3.4978   72.2109 C   0  0  0  0  0  0  0  0  0  0  0  0
  -50.2436   -3.9171   73.4854 C   0  0  0  0  0  0  0  0  0  0  0  0
  -48.9202   -4.0864   73.7973 O   0  0  0  0  0  0  0  0  0  0  0  0
  -52.5136   -2.9237   70.5658 C   0  0  0  0  0  0  0  0  0  0  0  0
  -52.0915   -3.6270   69.4879 C   0  0  0  0  0  0  0  0  0  0  0  0
  -52.4181   -3.2427   68.1269 C   0  0  0  0  0  0  0  0  0  0  0  0
  -52.1270   -1.9814   67.7445 C   0  0  0  0  0  0  0  0  0  0  0  0
  -53.3611   -1.1775   67.9498 C   0  0  0  0  0  0  0  0  0  0  0  0
  -53.9755   -0.6512   67.0364 O   0  0  0  0  0  0  0  0  0  0  0  0
  -53.7826   -1.0187   69.3826 C   0  0  0  0  0  0  0  0  0  0  0  0
  -53.4239   -1.7260   70.4856 C   0  0  0  0  0  0  0  0  0  0  0  0
  -54.0383   -1.3983   71.8452 C   0  0  0  0  0  0  0  0  0  0  0  0
  -55.1022   -2.4499   72.1659 C   0  0  0  0  0  0  0  0  0  0  0  0
  -54.5040   -3.7815   72.6678 C   0  0  0  0  0  0  0  0  0  0  0  0
  -48.8938   -4.7515   74.5094 H   0  0  0  0  0  0  0  0  0  0  0  0
  -54.5298   -0.0382   71.9465 N   0  0  0  0  0  0  0  0  0  0  0  0
  -55.1267    0.5041   73.0557 C   0  0  0  0  0  0  0  0  0  0  0  0
  -55.1721   -0.3218   74.3217 C   0  0  0  0  0  0  0  0  0  0  0  0
  -55.6265    1.6248   72.9936 O   0  0  0  0  0  0  0  0  0  0  0  0
  -54.5060    0.5729   71.1393 H   0  0  0  0  0  0  0  0  0  0  0  0
  -51.0018   -5.9865   75.9847 C   0  0  0  0  0  0  0  0  0  0  0  0
  -50.8236   -4.5843   75.7438 O   0  0  0  0  0  0  0  0  0  0  0  0
  -49.8146   -3.1042   71.1939 O   0  0  0  0  0  0  0  0  0  0  0  0
  -49.1580   -1.8480   71.2743 C   0  0  0  0  0  0  0  0  0  0  0  0
  -50.9675   -1.2708   67.9475 O   0  0  0  0  0  0  0  0  0  0  0  0
  -51.0735    0.0165   68.5336 C   0  0  0  0  0  0  0  0  0  0  0  0
 25 26  1  0  0  0
 26  1  1  0  0  0
  1  2  2  0  0  0
  2  3  1  0  0  0
  3  4  2  0  0  0
  4  5  1  0  0  0
  5 27  1  0  0  0
 27 28  1  0  0  0
  5  6  2  0  0  0
  1  6  1  0  0  0
  6  7  1  0  0  0
  4  8  1  0  0  0
  8  9  2  0  0  0
  9 10  1  0  0  0
 10 11  2  0  0  0
 11 29  1  0  0  0
 29 30  1  0  0  0
 11 12  1  0  0  0
 12 13  2  0  0  0
 12 14  1  0  0  0
 14 15  2  0  0  0
  8 15  1  0  0  0
 15 16  1  0  0  0
 16 20  1  0  0  0
 20 21  1  0  0  0
 21 22  1  0  0  0
 21 23  2  0  0  0
 16 17  1  0  0  0
 17 18  1  0  0  0
  3 18  1  0  0  0
  7 19  1  0  0  0
 20 24  1  0  0  0
M  END
> <minimizedAffinity>
-6.19938

$$$$
