ligand_6


 32 34  0  0  0  0  0  0  0  0999 V2000
  -54.5286    1.1104   70.4708 C   0  0  0  0  0  0  0  0  0  0  0  0
  -53.8665    0.0141   69.9069 C   0  0  0  0  0  0  0  0  0  0  0  0
  -53.5358   -1.1260   70.6686 C   0  0  0  0  0  0  0  0  0  0  0  0
  -53.8716   -1.1769   72.0385 C   0  0  0  0  0  0  0  0  0  0  0  0
  -54.5000   -0.0409   72.6040 C   0  0  0  0  0  0  0  0  0  0  0  0
  -54.8214    0.0037   73.9435 O   0  0  0  0  0  0  0  0  0  0  0  0
  -54.8366    1.0963   71.8352 C   0  0  0  0  0  0  0  0  0  0  0  0
  -53.5451   -2.3802   72.8470 C   0  0  0  0  0  0  0  0  0  0  0  0
  -52.1942   -2.6973   73.1029 C   0  0  0  0  0  0  0  0  0  0  0  0
  -51.8944   -3.8003   73.9170 C   0  0  0  0  0  0  0  0  0  0  0  0
  -52.8839   -4.6244   74.4599 C   0  0  0  0  0  0  0  0  0  0  0  0
  -54.2378   -4.3359   74.2223 C   0  0  0  0  0  0  0  0  0  0  0  0
  -54.5603   -3.2161   73.4106 C   0  0  0  0  0  0  0  0  0  0  0  0
  -51.0309   -1.8928   72.5517 C   0  0  0  0  0  0  0  0  0  0  0  0
  -50.4272   -2.3746   71.2002 C   0  0  0  0  0  0  0  0  0  0  0  0
  -50.1508   -3.8869   71.1864 C   0  0  0  0  0  0  0  0  0  0  0  0
  -49.1301   -1.7410   71.0893 O   0  0  0  0  0  0  0  0  0  0  0  0
  -51.2307   -1.8908   69.9511 C   0  0  0  0  0  0  0  0  0  0  0  0
  -50.6240   -2.4071   68.6328 C   0  0  0  0  0  0  0  0  0  0  0  0
  -52.7400   -2.2190   69.9754 C   0  0  0  0  0  0  0  0  0  0  0  0
  -54.7223   -0.8811   74.3319 H   0  0  0  0  0  0  0  0  0  0  0  0
  -48.5766   -2.0474   71.8287 H   0  0  0  0  0  0  0  0  0  0  0  0
  -54.1478    2.2727   68.4531 C   0  0  0  0  0  0  0  0  0  0  0  0
  -54.7800    2.2372   69.7298 O   0  0  0  0  0  0  0  0  0  0  0  0
  -55.4228    2.1190   72.5420 O   0  0  0  0  0  0  0  0  0  0  0  0
  -54.6002    3.2137   72.9156 C   0  0  0  0  0  0  0  0  0  0  0  0
  -52.3339   -5.6289   75.2160 O   0  0  0  0  0  0  0  0  0  0  0  0
  -51.0026   -5.4935   75.6877 C   0  0  0  0  0  0  0  0  0  0  0  0
  -55.1376   -5.1345   74.8779 O   0  0  0  0  0  0  0  0  0  0  0  0
  -55.8611   -4.6361   75.9906 C   0  0  0  0  0  0  0  0  0  0  0  0
  -55.8840   -2.8338   73.3387 O   0  0  0  0  0  0  0  0  0  0  0  0
  -56.6183   -3.3957   72.2494 C   0  0  0  0  0  0  0  0  0  0  0  0
 23 24  1  0  0  0
 24  1  1  0  0  0
  1  2  2  0  0  0
  2  3  1  0  0  0
  3  4  2  0  0  0
  4  5  1  0  0  0
  5  6  1  0  0  0
  5  7  2  0  0  0
  1  7  1  0  0  0
  7 25  1  0  0  0
 25 26  1  0  0  0
  4  8  1  0  0  0
  8  9  2  0  0  0
  9 10  1  0  0  0
 10 11  2  0  0  0
 11 27  1  0  0  0
 27 28  1  0  0  0
 11 12  1  0  0  0
 12 29  1  0  0  0
 29 30  1  0  0  0
 12 13  2  0  0  0
  8 13  1  0  0  0
 13 31  1  0  0  0
 31 32  1  0  0  0
  9 14  1  0  0  0
 14 15  1  0  0  0
 15 16  1  0  0  0
 15 17  1  0  0  0
 15 18  1  0  0  0
 18 19  1  0  0  0
 18 20  1  0  0  0
  3 20  1  0  0  0
  6 21  1  0  0  0
 17 22  1  0  0  0
M  END
> <minimizedAffinity>
-6.98303

$$$$
ligand_6


 32 34  0  0  0  0  0  0  0  0999 V2000
  -52.7085   -4.0403   74.1971 C   0  0  0  0  0  0  0  0  0  0  0  0
  -51.8567   -3.1864   73.4873 C   0  0  0  0  0  0  0  0  0  0  0  0
  -52.3299   -2.3664   72.4417 C   0  0  0  0  0  0  0  0  0  0  0  0
  -53.6956   -2.3987   72.0872 C   0  0  0  0  0  0  0  0  0  0  0  0
  -54.5347   -3.3015   72.7842 C   0  0  0  0  0  0  0  0  0  0  0  0
  -55.8708   -3.4224   72.4684 O   0  0  0  0  0  0  0  0  0  0  0  0
  -54.0580   -4.1156   73.8366 C   0  0  0  0  0  0  0  0  0  0  0  0
  -54.2094   -1.5258   70.9998 C   0  0  0  0  0  0  0  0  0  0  0  0
  -53.7952   -1.7578   69.6710 C   0  0  0  0  0  0  0  0  0  0  0  0
  -54.3305   -0.9685   68.6416 C   0  0  0  0  0  0  0  0  0  0  0  0
  -55.2363    0.0680   68.8831 C   0  0  0  0  0  0  0  0  0  0  0  0
  -55.6669    0.3248   70.1952 C   0  0  0  0  0  0  0  0  0  0  0  0
  -55.1449   -0.4722   71.2484 C   0  0  0  0  0  0  0  0  0  0  0  0
  -52.8006   -2.8376   69.2850 C   0  0  0  0  0  0  0  0  0  0  0  0
  -51.3047   -2.4138   69.2089 C   0  0  0  0  0  0  0  0  0  0  0  0
  -51.1016   -1.1180   68.4066 C   0  0  0  0  0  0  0  0  0  0  0  0
  -50.6304   -3.4486   68.4535 O   0  0  0  0  0  0  0  0  0  0  0  0
  -50.5929   -2.3875   70.5990 C   0  0  0  0  0  0  0  0  0  0  0  0
  -49.1236   -1.9379   70.4923 C   0  0  0  0  0  0  0  0  0  0  0  0
  -51.3018   -1.5449   71.6823 C   0  0  0  0  0  0  0  0  0  0  0  0
  -56.1317   -2.6997   71.8742 H   0  0  0  0  0  0  0  0  0  0  0  0
  -51.0147   -3.4739   67.5599 H   0  0  0  0  0  0  0  0  0  0  0  0
  -50.8855   -4.5964   75.5880 C   0  0  0  0  0  0  0  0  0  0  0  0
  -52.2164   -4.8795   75.1642 O   0  0  0  0  0  0  0  0  0  0  0  0
  -54.9978   -4.9499   74.3933 O   0  0  0  0  0  0  0  0  0  0  0  0
  -55.6081   -4.5342   75.6054 C   0  0  0  0  0  0  0  0  0  0  0  0
  -55.6082    0.6848   67.7150 O   0  0  0  0  0  0  0  0  0  0  0  0
  -55.6096   -0.0591   66.5069 C   0  0  0  0  0  0  0  0  0  0  0  0
  -56.6317    1.2889   70.3241 O   0  0  0  0  0  0  0  0  0  0  0  0
  -56.2685    2.6500   70.4838 C   0  0  0  0  0  0  0  0  0  0  0  0
  -55.7119   -0.3370   72.4989 O   0  0  0  0  0  0  0  0  0  0  0  0
  -55.1289    0.6752   73.3219 C   0  0  0  0  0  0  0  0  0  0  0  0
 23 24  1  0  0  0
 24  1  1  0  0  0
  1  2  2  0  0  0
  2  3  1  0  0  0
  3  4  2  0  0  0
  4  5  1  0  0  0
  5  6  1  0  0  0
  5  7  2  0  0  0
  1  7  1  0  0  0
  7 25  1  0  0  0
 25 26  1  0  0  0
  4  8  1  0  0  0
  8  9  2  0  0  0
  9 10  1  0  0  0
 10 11  2  0  0  0
 11 27  1  0  0  0
 27 28  1  0  0  0
 11 12  1  0  0  0
 12 29  1  0  0  0
 29 30  1  0  0  0
 12 13  2  0  0  0
  8 13  1  0  0  0
 13 31  1  0  0  0
 31 32  1  0  0  0
  9 14  1  0  0  0
 14 15  1  0  0  0
 15 16  1  0  0  0
 15 17  1  0  0  0
 15 18  1  0  0  0
 18 19  1  0  0  0
 18 20  1  0  0  0
  3 20  1  0  0  0
  6 21  1  0  0  0
 17 22  1  0  0  0
M  END
> <minimizedAffinity>
-6.85691

$$$$
ligand_6


 32 34  0  0  0  0  0  0  0  0999 V2000
  -50.2004   -4.1464   74.3577 C   0  0  0  0  0  0  0  0  0  0  0  0
  -51.5454   -4.5299   74.4047 C   0  0  0  0  0  0  0  0  0  0  0  0
  -52.5055   -3.9802   73.5297 C   0  0  0  0  0  0  0  0  0  0  0  0
  -52.1161   -3.0139   72.5776 C   0  0  0  0  0  0  0  0  0  0  0  0
  -50.7609   -2.6033   72.5739 C   0  0  0  0  0  0  0  0  0  0  0  0
  -50.3115   -1.6341   71.7033 O   0  0  0  0  0  0  0  0  0  0  0  0
  -49.8005   -3.1625   73.4472 C   0  0  0  0  0  0  0  0  0  0  0  0
  -53.1148   -2.4412   71.6380 C   0  0  0  0  0  0  0  0  0  0  0  0
  -54.1473   -1.6208   72.1398 C   0  0  0  0  0  0  0  0  0  0  0  0
  -55.0513   -1.0346   71.2407 C   0  0  0  0  0  0  0  0  0  0  0  0
  -54.9925   -1.2592   69.8625 C   0  0  0  0  0  0  0  0  0  0  0  0
  -53.9772   -2.0722   69.3323 C   0  0  0  0  0  0  0  0  0  0  0  0
  -53.0460   -2.6640   70.2264 C   0  0  0  0  0  0  0  0  0  0  0  0
  -54.3293   -1.3204   73.6166 C   0  0  0  0  0  0  0  0  0  0  0  0
  -55.2916   -2.2555   74.4058 C   0  0  0  0  0  0  0  0  0  0  0  0
  -56.6320   -2.4643   73.6821 C   0  0  0  0  0  0  0  0  0  0  0  0
  -55.6162   -1.5577   75.6320 O   0  0  0  0  0  0  0  0  0  0  0  0
  -54.6276   -3.5954   74.8569 C   0  0  0  0  0  0  0  0  0  0  0  0
  -55.6131   -4.5088   75.6100 C   0  0  0  0  0  0  0  0  0  0  0  0
  -53.9510   -4.4041   73.7280 C   0  0  0  0  0  0  0  0  0  0  0  0
  -50.9929   -1.4560   71.0342 H   0  0  0  0  0  0  0  0  0  0  0  0
  -56.0725   -0.7299   75.4007 H   0  0  0  0  0  0  0  0  0  0  0  0
  -49.8032   -4.8302   76.5807 C   0  0  0  0  0  0  0  0  0  0  0  0
  -49.2959   -4.6419   75.2622 O   0  0  0  0  0  0  0  0  0  0  0  0
  -48.5358   -2.6379   73.3279 O   0  0  0  0  0  0  0  0  0  0  0  0
  -47.5658   -3.4142   72.6417 C   0  0  0  0  0  0  0  0  0  0  0  0
  -55.9832   -0.5742   69.2049 O   0  0  0  0  0  0  0  0  0  0  0  0
  -55.8304    0.8175   68.9754 C   0  0  0  0  0  0  0  0  0  0  0  0
  -53.9355   -2.1519   67.9652 O   0  0  0  0  0  0  0  0  0  0  0  0
  -54.5238   -3.2526   67.2928 C   0  0  0  0  0  0  0  0  0  0  0  0
  -51.9499   -3.3025   69.6837 O   0  0  0  0  0  0  0  0  0  0  0  0
  -51.1517   -2.4997   68.8119 C   0  0  0  0  0  0  0  0  0  0  0  0
 23 24  1  0  0  0
 24  1  1  0  0  0
  1  2  2  0  0  0
  2  3  1  0  0  0
  3  4  2  0  0  0
  4  5  1  0  0  0
  5  6  1  0  0  0
  5  7  2  0  0  0
  1  7  1  0  0  0
  7 25  1  0  0  0
 25 26  1  0  0  0
  4  8  1  0  0  0
  8  9  2  0  0  0
  9 10  1  0  0  0
 10 11  2  0  0  0
 11 27  1  0  0  0
 27 28  1  0  0  0
 11 12  1  0  0  0
 12 29  1  0  0  0
 29 30  1  0  0  0
 12 13  2  0  0  0
  8 13  1  0  0  0
 13 31  1  0  0  0
 31 32  1  0  0  0
  9 14  1  0  0  0
 14 15  1  0  0  0
 15 16  1  0  0  0
 15 17  1  0  0  0
 15 18  1  0  0  0
 18 19  1  0  0  0
 18 20  1  0  0  0
  3 20  1  0  0  0
  6 21  1  0  0  0
 17 22  1  0  0  0
M  END
> <minimizedAffinity>
-6.60561

$$$$
ligand_6


 32 34  0  0  0  0  0  0  0  0999 V2000
  -53.8000   -2.7255   73.7233 C   0  0  0  0  0  0  0  0  0  0  0  0
  -52.6871   -2.2570   73.0160 C   0  0  0  0  0  0  0  0  0  0  0  0
  -52.8229   -1.4413   71.8734 C   0  0  0  0  0  0  0  0  0  0  0  0
  -54.1087   -1.0817   71.4160 C   0  0  0  0  0  0  0  0  0  0  0  0
  -55.2247   -1.6017   72.1157 C   0  0  0  0  0  0  0  0  0  0  0  0
  -56.5126   -1.3312   71.7064 O   0  0  0  0  0  0  0  0  0  0  0  0
  -55.0840   -2.4123   73.2649 C   0  0  0  0  0  0  0  0  0  0  0  0
  -54.2641   -0.2076   70.2244 C   0  0  0  0  0  0  0  0  0  0  0  0
  -53.8805   -0.6913   68.9556 C   0  0  0  0  0  0  0  0  0  0  0  0
  -54.0856    0.1164   67.8266 C   0  0  0  0  0  0  0  0  0  0  0  0
  -54.6254    1.4027   67.9111 C   0  0  0  0  0  0  0  0  0  0  0  0
  -55.0159    1.9132   69.1600 C   0  0  0  0  0  0  0  0  0  0  0  0
  -54.8270    1.1048   70.3122 C   0  0  0  0  0  0  0  0  0  0  0  0
  -53.2632   -2.0610   68.7380 C   0  0  0  0  0  0  0  0  0  0  0  0
  -51.7084   -2.1352   68.7459 C   0  0  0  0  0  0  0  0  0  0  0  0
  -51.0645   -1.0562   67.8598 C   0  0  0  0  0  0  0  0  0  0  0  0
  -51.3619   -3.4000   68.1325 O   0  0  0  0  0  0  0  0  0  0  0  0
  -51.0944   -2.1909   70.1811 C   0  0  0  0  0  0  0  0  0  0  0  0
  -49.5550   -2.2355   70.1545 C   0  0  0  0  0  0  0  0  0  0  0  0
  -51.5509   -1.0634   71.1333 C   0  0  0  0  0  0  0  0  0  0  0  0
  -56.5005   -0.6276   71.0368 H   0  0  0  0  0  0  0  0  0  0  0  0
  -51.6899   -3.3949   67.2163 H   0  0  0  0  0  0  0  0  0  0  0  0
  -52.7657   -4.6700   74.5697 C   0  0  0  0  0  0  0  0  0  0  0  0
  -53.6486   -3.5734   74.7910 O   0  0  0  0  0  0  0  0  0  0  0  0
  -56.2665   -2.8505   73.8115 O   0  0  0  0  0  0  0  0  0  0  0  0
  -56.6304   -4.2041   73.5884 C   0  0  0  0  0  0  0  0  0  0  0  0
  -54.7239    1.9825   66.6711 O   0  0  0  0  0  0  0  0  0  0  0  0
  -55.5048    1.3504   65.6692 C   0  0  0  0  0  0  0  0  0  0  0  0
  -55.6291    3.1381   69.1338 O   0  0  0  0  0  0  0  0  0  0  0  0
  -54.8591    4.3270   69.1949 C   0  0  0  0  0  0  0  0  0  0  0  0
  -55.3823    1.5368   71.4990 O   0  0  0  0  0  0  0  0  0  0  0  0
  -54.5532    2.4038   72.2753 C   0  0  0  0  0  0  0  0  0  0  0  0
 23 24  1  0  0  0
 24  1  1  0  0  0
  1  2  2  0  0  0
  2  3  1  0  0  0
  3  4  2  0  0  0
  4  5  1  0  0  0
  5  6  1  0  0  0
  5  7  2  0  0  0
  1  7  1  0  0  0
  7 25  1  0  0  0
 25 26  1  0  0  0
  4  8  1  0  0  0
  8  9  2  0  0  0
  9 10  1  0  0  0
 10 11  2  0  0  0
 11 27  1  0  0  0
 27 28  1  0  0  0
 11 12  1  0  0  0
 12 29  1  0  0  0
 29 30  1  0  0  0
 12 13  2  0  0  0
  8 13  1  0  0  0
 13 31  1  0  0  0
 31 32  1  0  0  0
  9 14  1  0  0  0
 14 15  1  0  0  0
 15 16  1  0  0  0
 15 17  1  0  0  0
 15 18  1  0  0  0
 18 19  1  0  0  0
 18 20  1  0  0  0
  3 20  1  0  0  0
  6 21  1  0  0  0
 17 22  1  0  0  0
M  END
> <minimizedAffinity>
-6.37344

$$$$
ligand_6


 32 34  0  0  0  0  0  0  0  0999 V2000
  -51.6476   -5.7247   75.6488 C   0  0  0  0  0  0  0  0  0  0  0  0
  -50.8516   -4.6900   75.1447 C   0  0  0  0  0  0  0  0  0  0  0  0
  -51.3847   -3.6768   74.3208 C   0  0  0  0  0  0  0  0  0  0  0  0
  -52.7550   -3.6945   73.9836 C   0  0  0  0  0  0  0  0  0  0  0  0
  -53.5365   -4.7732   74.4639 C   0  0  0  0  0  0  0  0  0  0  0  0
  -54.8724   -4.8845   74.1438 O   0  0  0  0  0  0  0  0  0  0  0  0
  -53.0000   -5.7821   75.2958 C   0  0  0  0  0  0  0  0  0  0  0  0
  -53.3320   -2.6223   73.1317 C   0  0  0  0  0  0  0  0  0  0  0  0
  -52.9374   -2.5232   71.7806 C   0  0  0  0  0  0  0  0  0  0  0  0
  -53.5307   -1.5466   70.9661 C   0  0  0  0  0  0  0  0  0  0  0  0
  -54.4772   -0.6390   71.4494 C   0  0  0  0  0  0  0  0  0  0  0  0
  -54.8897   -0.7110   72.7901 C   0  0  0  0  0  0  0  0  0  0  0  0
  -54.3088   -1.7012   73.6261 C   0  0  0  0  0  0  0  0  0  0  0  0
  -51.9035   -3.4355   71.1457 C   0  0  0  0  0  0  0  0  0  0  0  0
  -50.4304   -2.9322   71.1523 C   0  0  0  0  0  0  0  0  0  0  0  0
  -50.3044   -1.4787   70.6670 C   0  0  0  0  0  0  0  0  0  0  0  0
  -49.7267   -3.7320   70.1719 O   0  0  0  0  0  0  0  0  0  0  0  0
  -49.6899   -3.1898   72.5032 C   0  0  0  0  0  0  0  0  0  0  0  0
  -48.2453   -2.6557   72.4863 C   0  0  0  0  0  0  0  0  0  0  0  0
  -50.4121   -2.6536   73.7590 C   0  0  0  0  0  0  0  0  0  0  0  0
  -55.1791   -4.0586   73.7344 H   0  0  0  0  0  0  0  0  0  0  0  0
  -50.1292   -3.5709   69.3007 H   0  0  0  0  0  0  0  0  0  0  0  0
  -50.1933   -6.3160   77.4102 C   0  0  0  0  0  0  0  0  0  0  0  0
  -51.0965   -6.7378   76.3916 O   0  0  0  0  0  0  0  0  0  0  0  0
  -53.8883   -6.7670   75.6563 O   0  0  0  0  0  0  0  0  0  0  0  0
  -53.3520   -8.0122   76.0763 C   0  0  0  0  0  0  0  0  0  0  0  0
  -54.9026    0.2098   70.4585 O   0  0  0  0  0  0  0  0  0  0  0  0
  -53.9968    1.1618   69.9234 C   0  0  0  0  0  0  0  0  0  0  0  0
  -55.8943    0.1492   73.1478 O   0  0  0  0  0  0  0  0  0  0  0  0
  -55.6344    1.5356   73.2903 C   0  0  0  0  0  0  0  0  0  0  0  0
  -54.8534   -1.8840   74.8805 O   0  0  0  0  0  0  0  0  0  0  0  0
  -56.2106   -2.3304   74.8922 C   0  0  0  0  0  0  0  0  0  0  0  0
 23 24  1  0  0  0
 24  1  1  0  0  0
  1  2  2  0  0  0
  2  3  1  0  0  0
  3  4  2  0  0  0
  4  5  1  0  0  0
  5  6  1  0  0  0
  5  7  2  0  0  0
  1  7  1  0  0  0
  7 25  1  0  0  0
 25 26  1  0  0  0
  4  8  1  0  0  0
  8  9  2  0  0  0
  9 10  1  0  0  0
 10 11  2  0  0  0
 11 27  1  0  0  0
 27 28  1  0  0  0
 11 12  1  0  0  0
 12 29  1  0  0  0
 29 30  1  0  0  0
 12 13  2  0  0  0
  8 13  1  0  0  0
 13 31  1  0  0  0
 31 32  1  0  0  0
  9 14  1  0  0  0
 14 15  1  0  0  0
 15 16  1  0  0  0
 15 17  1  0  0  0
 15 18  1  0  0  0
 18 19  1  0  0  0
 18 20  1  0  0  0
  3 20  1  0  0  0
  6 21  1  0  0  0
 17 22  1  0  0  0
M  END
> <minimizedAffinity>
-6.13562

$$$$
