ligand_22


 16 16  0  0  0  0  0  0  0  0999 V2000
  -49.5972   -5.3211   76.5487 C   0  0  0  0  0  0  0  0  0  0  0  0
  -48.2359   -5.4163   75.8291 C   0  0  0  0  0  0  0  0  0  0  0  0
  -49.9076   -6.7315   77.0982 C   0  0  0  0  0  0  0  0  0  0  0  0
  -50.7422   -4.9424   75.5601 C   0  0  0  0  0  0  0  0  0  0  0  0
  -50.6019   -3.9465   74.5752 C   0  0  0  0  0  0  0  0  0  0  0  0
  -51.6335   -3.6636   73.6708 C   0  0  0  0  0  0  0  0  0  0  0  0
  -52.8298   -4.3621   73.7508 C   0  0  0  0  0  0  0  0  0  0  0  0
  -53.8525   -4.1286   72.8808 O   0  0  0  0  0  0  0  0  0  0  0  0
  -53.0158   -5.3267   74.7278 C   0  0  0  0  0  0  0  0  0  0  0  0
  -51.9822   -5.6129   75.6238 C   0  0  0  0  0  0  0  0  0  0  0  0
  -53.5590   -3.4690   72.2313 H   0  0  0  0  0  0  0  0  0  0  0  0
  -49.5799   -4.2190   77.6671 C   0  0  0  0  0  0  0  0  0  0  0  0
  -49.0403   -3.0133   79.7871 C   0  0  0  0  0  0  0  0  0  0  0  0
  -48.8326   -4.3549   79.0355 C   0  0  0  0  0  0  0  0  0  0  0  0
  -47.3159   -4.5507   78.8868 C   0  0  0  0  0  0  0  0  0  0  0  0
  -49.4043   -5.4654   79.9282 C   0  0  0  0  0  0  0  0  0  0  0  0
 13 14  1  0  0  0
 14 15  1  0  0  0
 14 16  1  0  0  0
 14 12  1  0  0  0
 12  1  1  0  0  0
  1  2  1  0  0  0
  1  3  1  0  0  0
  1  4  1  0  0  0
  4  5  2  0  0  0
  5  6  1  0  0  0
  6  7  2  0  0  0
  7  8  1  0  0  0
  7  9  1  0  0  0
  9 10  2  0  0  0
  4 10  1  0  0  0
  8 11  1  0  0  0
M  END
> <minimizedAffinity>
-6.15509

$$$$
ligand_22


 16 16  0  0  0  0  0  0  0  0999 V2000
  -50.8606   -0.9053   69.1029 C   0  0  0  0  0  0  0  0  0  0  0  0
  -51.4094    0.1055   70.1311 C   0  0  0  0  0  0  0  0  0  0  0  0
  -49.9996   -0.0991   68.1049 C   0  0  0  0  0  0  0  0  0  0  0  0
  -52.0099   -1.5780   68.2916 C   0  0  0  0  0  0  0  0  0  0  0  0
  -51.8763   -2.8392   67.6810 C   0  0  0  0  0  0  0  0  0  0  0  0
  -52.9441   -3.4374   66.9998 C   0  0  0  0  0  0  0  0  0  0  0  0
  -54.1583   -2.7726   66.9039 C   0  0  0  0  0  0  0  0  0  0  0  0
  -55.2267   -3.3258   66.2638 O   0  0  0  0  0  0  0  0  0  0  0  0
  -54.3169   -1.5156   67.4646 C   0  0  0  0  0  0  0  0  0  0  0  0
  -53.2526   -0.9242   68.1507 C   0  0  0  0  0  0  0  0  0  0  0  0
  -54.9805   -4.2179   65.9695 H   0  0  0  0  0  0  0  0  0  0  0  0
  -50.0625   -2.0618   69.8040 C   0  0  0  0  0  0  0  0  0  0  0  0
  -49.3653   -3.7648   71.4931 C   0  0  0  0  0  0  0  0  0  0  0  0
  -50.3698   -2.6101   71.2373 C   0  0  0  0  0  0  0  0  0  0  0  0
  -51.7785   -3.2082   71.3738 C   0  0  0  0  0  0  0  0  0  0  0  0
  -50.1499   -1.5677   72.3427 C   0  0  0  0  0  0  0  0  0  0  0  0
 13 14  1  0  0  0
 14 15  1  0  0  0
 14 16  1  0  0  0
 14 12  1  0  0  0
 12  1  1  0  0  0
  1  2  1  0  0  0
  1  3  1  0  0  0
  1  4  1  0  0  0
  4  5  2  0  0  0
  5  6  1  0  0  0
  6  7  2  0  0  0
  7  8  1  0  0  0
  7  9  1  0  0  0
  9 10  2  0  0  0
  4 10  1  0  0  0
  8 11  1  0  0  0
M  END
> <minimizedAffinity>
-6.13659

$$$$
ligand_22


 16 16  0  0  0  0  0  0  0  0999 V2000
  -49.6422   -5.2636   76.1979 C   0  0  0  0  0  0  0  0  0  0  0  0
  -48.4899   -6.2762   76.3612 C   0  0  0  0  0  0  0  0  0  0  0  0
  -50.9422   -6.0887   76.0685 C   0  0  0  0  0  0  0  0  0  0  0  0
  -49.4880   -4.4264   74.8914 C   0  0  0  0  0  0  0  0  0  0  0  0
  -50.4363   -3.4704   74.4811 C   0  0  0  0  0  0  0  0  0  0  0  0
  -50.2443   -2.7003   73.3268 C   0  0  0  0  0  0  0  0  0  0  0  0
  -49.1067   -2.8890   72.5548 C   0  0  0  0  0  0  0  0  0  0  0  0
  -48.8742   -2.1501   71.4336 O   0  0  0  0  0  0  0  0  0  0  0  0
  -48.1674   -3.8435   72.9100 C   0  0  0  0  0  0  0  0  0  0  0  0
  -48.3571   -4.6050   74.0664 C   0  0  0  0  0  0  0  0  0  0  0  0
  -49.5871   -1.4971   71.3424 H   0  0  0  0  0  0  0  0  0  0  0  0
  -49.6824   -4.2420   77.3899 C   0  0  0  0  0  0  0  0  0  0  0  0
  -49.3652   -3.2489   79.6597 C   0  0  0  0  0  0  0  0  0  0  0  0
  -48.9845   -4.4640   78.7729 C   0  0  0  0  0  0  0  0  0  0  0  0
  -47.4506   -4.4879   78.6867 C   0  0  0  0  0  0  0  0  0  0  0  0
  -49.4732   -5.7244   79.5007 C   0  0  0  0  0  0  0  0  0  0  0  0
 13 14  1  0  0  0
 14 15  1  0  0  0
 14 16  1  0  0  0
 14 12  1  0  0  0
 12  1  1  0  0  0
  1  2  1  0  0  0
  1  3  1  0  0  0
  1  4  1  0  0  0
  4  5  2  0  0  0
  5  6  1  0  0  0
  6  7  2  0  0  0
  7  8  1  0  0  0
  7  9  1  0  0  0
  9 10  2  0  0  0
  4 10  1  0  0  0
  8 11  1  0  0  0
M  END
> <minimizedAffinity>
-5.99536

$$$$
ligand_22


 16 16  0  0  0  0  0  0  0  0999 V2000
  -49.0238   -5.0039   78.0356 C   0  0  0  0  0  0  0  0  0  0  0  0
  -49.8858   -6.0058   78.8314 C   0  0  0  0  0  0  0  0  0  0  0  0
  -47.9323   -5.8298   77.3188 C   0  0  0  0  0  0  0  0  0  0  0  0
  -48.3016   -3.9941   78.9792 C   0  0  0  0  0  0  0  0  0  0  0  0
  -48.9927   -3.1671   79.8846 C   0  0  0  0  0  0  0  0  0  0  0  0
  -48.3108   -2.3050   80.7529 C   0  0  0  0  0  0  0  0  0  0  0  0
  -46.9250   -2.2446   80.7151 C   0  0  0  0  0  0  0  0  0  0  0  0
  -46.2226   -1.4313   81.5531 O   0  0  0  0  0  0  0  0  0  0  0  0
  -46.2127   -3.0201   79.8146 C   0  0  0  0  0  0  0  0  0  0  0  0
  -46.8948   -3.8854   78.9548 C   0  0  0  0  0  0  0  0  0  0  0  0
  -46.8486   -0.9927   82.1520 H   0  0  0  0  0  0  0  0  0  0  0  0
  -49.8975   -4.1546   77.0450 C   0  0  0  0  0  0  0  0  0  0  0  0
  -51.4226   -3.6158   75.1416 C   0  0  0  0  0  0  0  0  0  0  0  0
  -50.3709   -4.6441   75.6359 C   0  0  0  0  0  0  0  0  0  0  0  0
  -51.0682   -6.0129   75.6669 C   0  0  0  0  0  0  0  0  0  0  0  0
  -49.2424   -4.6710   74.5953 C   0  0  0  0  0  0  0  0  0  0  0  0
 13 14  1  0  0  0
 14 15  1  0  0  0
 14 16  1  0  0  0
 14 12  1  0  0  0
 12  1  1  0  0  0
  1  2  1  0  0  0
  1  3  1  0  0  0
  1  4  1  0  0  0
  4  5  2  0  0  0
  5  6  1  0  0  0
  6  7  2  0  0  0
  7  8  1  0  0  0
  7  9  1  0  0  0
  9 10  2  0  0  0
  4 10  1  0  0  0
  8 11  1  0  0  0
M  END
> <minimizedAffinity>
-5.95038

$$$$
ligand_22


 16 16  0  0  0  0  0  0  0  0999 V2000
  -55.3410    5.1588   73.9117 C   0  0  0  0  0  0  0  0  0  0  0  0
  -55.9690    6.2369   73.0044 C   0  0  0  0  0  0  0  0  0  0  0  0
  -56.4927    4.2320   74.3612 C   0  0  0  0  0  0  0  0  0  0  0  0
  -54.7161    5.7844   75.1961 C   0  0  0  0  0  0  0  0  0  0  0  0
  -53.9553    6.9685   75.1759 C   0  0  0  0  0  0  0  0  0  0  0  0
  -53.4483    7.5308   76.3545 C   0  0  0  0  0  0  0  0  0  0  0  0
  -53.6803    6.9050   77.5710 C   0  0  0  0  0  0  0  0  0  0  0  0
  -53.2183    7.4269   78.7420 O   0  0  0  0  0  0  0  0  0  0  0  0
  -54.3972    5.7207   77.6260 C   0  0  0  0  0  0  0  0  0  0  0  0
  -54.9090    5.1659   76.4498 C   0  0  0  0  0  0  0  0  0  0  0  0
  -52.7825    8.2734   78.5506 H   0  0  0  0  0  0  0  0  0  0  0  0
  -54.1881    4.3883   73.1748 C   0  0  0  0  0  0  0  0  0  0  0  0
  -53.2942    3.0111   71.2924 C   0  0  0  0  0  0  0  0  0  0  0  0
  -53.9924    4.3570   71.6223 C   0  0  0  0  0  0  0  0  0  0  0  0
  -53.0753    5.4734   71.0993 C   0  0  0  0  0  0  0  0  0  0  0  0
  -55.3167    4.3804   70.8461 C   0  0  0  0  0  0  0  0  0  0  0  0
 13 14  1  0  0  0
 14 15  1  0  0  0
 14 16  1  0  0  0
 14 12  1  0  0  0
 12  1  1  0  0  0
  1  2  1  0  0  0
  1  3  1  0  0  0
  1  4  1  0  0  0
  4  5  2  0  0  0
  5  6  1  0  0  0
  6  7  2  0  0  0
  7  8  1  0  0  0
  7  9  1  0  0  0
  9 10  2  0  0  0
  4 10  1  0  0  0
  8 11  1  0  0  0
M  END
> <minimizedAffinity>
-5.76591

$$$$
