ligand_45


 23 25  0  0  0  0  0  0  0  0999 V2000
  -54.5523    5.7010   75.0025 N   0  0  0  0  0  0  0  0  0  0  0  0
  -54.3177    6.9594   74.5234 C   0  0  0  0  0  0  0  0  0  0  0  0
  -54.1911    6.9696   73.2181 N   0  0  0  0  0  0  0  0  0  0  0  0
  -54.3857    5.6609   72.8344 C   0  0  0  0  0  0  0  0  0  0  0  0
  -54.5701    4.8321   73.9319 C   0  0  0  0  0  0  0  0  0  0  0  0
  -54.7857    3.5070   74.1145 N   0  0  0  0  0  0  0  0  0  0  0  0
  -54.6920    2.6863   73.1255 C   0  0  0  0  0  0  0  0  0  0  0  0
  -54.3480    2.8041   71.8046 N   0  0  0  0  0  0  0  0  0  0  0  0
  -53.6508    3.9318   71.1952 C   0  0  0  0  0  0  0  0  0  0  0  0
  -54.3829    5.2667   71.3982 C   0  0  0  0  0  0  0  0  0  0  0  0
  -55.7142    5.1593   70.8678 O   0  0  0  0  0  0  0  0  0  0  0  0
  -54.4289    1.9790   71.2199 H   0  0  0  0  0  0  0  0  0  0  0  0
  -56.1759    4.5571   71.4798 H   0  0  0  0  0  0  0  0  0  0  0  0
  -55.5986    6.5564   78.2264 C   0  0  0  0  0  0  0  0  0  0  0  0
  -55.9075    6.0810   76.8988 O   0  0  0  0  0  0  0  0  0  0  0  0
  -54.7652    5.3499   76.3918 C   0  0  0  0  0  0  0  0  0  0  0  0
  -53.5938    5.6671   77.3095 C   0  0  0  0  0  0  0  0  0  0  0  0
  -54.2941    5.8672   78.6341 C   0  0  0  0  0  0  0  0  0  0  0  0
  -54.5342    4.5759   79.2071 O   0  0  0  0  0  0  0  0  0  0  0  0
  -55.4147    4.2622   78.9333 H   0  0  0  0  0  0  0  0  0  0  0  0
  -54.2366    8.5191   78.6647 O   0  0  0  0  0  0  0  0  0  0  0  0
  -55.4996    8.0839   78.1847 C   0  0  0  0  0  0  0  0  0  0  0  0
  -54.2734    9.4900   78.7311 H   0  0  0  0  0  0  0  0  0  0  0  0
 21 22  1  0  0  0
 22 14  1  0  0  0
 14 15  1  0  0  0
 15 16  1  0  0  0
 16  1  1  0  0  0
  1  2  1  0  0  0
  2  3  2  0  0  0
  3  4  1  0  0  0
  4  5  2  0  0  0
  1  5  1  0  0  0
  5  6  1  0  0  0
  6  7  2  0  0  0
  7  8  1  0  0  0
  8  9  1  0  0  0
  9 10  1  0  0  0
  4 10  1  0  0  0
 10 11  1  0  0  0
 16 17  1  0  0  0
 17 18  1  0  0  0
 14 18  1  0  0  0
 18 19  1  0  0  0
 21 23  1  0  0  0
  8 12  1  0  0  0
 11 13  1  0  0  0
 19 20  1  0  0  0
M  END
> <minimizedAffinity>
-6.72114

$$$$
ligand_45


 23 25  0  0  0  0  0  0  0  0999 V2000
  -51.1660   -4.5930   74.6706 N   0  0  0  0  0  0  0  0  0  0  0  0
  -52.4153   -5.1339   74.7915 C   0  0  0  0  0  0  0  0  0  0  0  0
  -53.2430   -4.6580   73.8925 N   0  0  0  0  0  0  0  0  0  0  0  0
  -52.4829   -3.7936   73.1355 C   0  0  0  0  0  0  0  0  0  0  0  0
  -51.1879   -3.6955   73.6239 C   0  0  0  0  0  0  0  0  0  0  0  0
  -50.0747   -3.0067   73.2743 N   0  0  0  0  0  0  0  0  0  0  0  0
  -50.1290   -2.0911   72.3692 C   0  0  0  0  0  0  0  0  0  0  0  0
  -51.1318   -1.5358   71.6189 N   0  0  0  0  0  0  0  0  0  0  0  0
  -52.5626   -1.6369   71.8869 C   0  0  0  0  0  0  0  0  0  0  0  0
  -53.0562   -3.0897   71.9547 C   0  0  0  0  0  0  0  0  0  0  0  0
  -52.7325   -3.7553   70.7229 O   0  0  0  0  0  0  0  0  0  0  0  0
  -50.8718   -0.8582   70.9100 H   0  0  0  0  0  0  0  0  0  0  0  0
  -51.7623   -3.8490   70.7405 H   0  0  0  0  0  0  0  0  0  0  0  0
  -49.5947   -6.6669   77.0051 C   0  0  0  0  0  0  0  0  0  0  0  0
  -49.9345   -6.3619   75.6356 O   0  0  0  0  0  0  0  0  0  0  0  0
  -50.0171   -4.9239   75.4888 C   0  0  0  0  0  0  0  0  0  0  0  0
  -50.0517   -4.3368   76.8921 C   0  0  0  0  0  0  0  0  0  0  0  0
  -49.2139   -5.3356   77.6574 C   0  0  0  0  0  0  0  0  0  0  0  0
  -47.8344   -5.0148   77.4396 O   0  0  0  0  0  0  0  0  0  0  0  0
  -47.5053   -5.5175   76.6730 H   0  0  0  0  0  0  0  0  0  0  0  0
  -51.6250   -7.9610   76.6845 O   0  0  0  0  0  0  0  0  0  0  0  0
  -50.7959   -7.3521   77.6627 C   0  0  0  0  0  0  0  0  0  0  0  0
  -52.4273   -8.2715   77.1407 H   0  0  0  0  0  0  0  0  0  0  0  0
 21 22  1  0  0  0
 22 14  1  0  0  0
 14 15  1  0  0  0
 15 16  1  0  0  0
 16  1  1  0  0  0
  1  2  1  0  0  0
  2  3  2  0  0  0
  3  4  1  0  0  0
  4  5  2  0  0  0
  1  5  1  0  0  0
  5  6  1  0  0  0
  6  7  2  0  0  0
  7  8  1  0  0  0
  8  9  1  0  0  0
  9 10  1  0  0  0
  4 10  1  0  0  0
 10 11  1  0  0  0
 16 17  1  0  0  0
 17 18  1  0  0  0
 14 18  1  0  0  0
 18 19  1  0  0  0
 21 23  1  0  0  0
  8 12  1  0  0  0
 11 13  1  0  0  0
 19 20  1  0  0  0
M  END
> <minimizedAffinity>
-6.67632

$$$$
ligand_45


 23 25  0  0  0  0  0  0  0  0999 V2000
  -52.1132   -2.8926   71.4052 N   0  0  0  0  0  0  0  0  0  0  0  0
  -51.2350   -1.8840   71.6870 C   0  0  0  0  0  0  0  0  0  0  0  0
  -50.8632   -1.2432   70.6049 N   0  0  0  0  0  0  0  0  0  0  0  0
  -51.5597   -1.8463   69.5807 C   0  0  0  0  0  0  0  0  0  0  0  0
  -52.3183   -2.9127   70.0418 C   0  0  0  0  0  0  0  0  0  0  0  0
  -53.1525   -3.8187   69.4767 N   0  0  0  0  0  0  0  0  0  0  0  0
  -53.2550   -3.9036   68.1950 C   0  0  0  0  0  0  0  0  0  0  0  0
  -52.6424   -3.2868   67.1361 N   0  0  0  0  0  0  0  0  0  0  0  0
  -51.3986   -2.5254   67.1871 C   0  0  0  0  0  0  0  0  0  0  0  0
  -51.4558   -1.3540   68.1789 C   0  0  0  0  0  0  0  0  0  0  0  0
  -52.5521   -0.4934   67.8288 O   0  0  0  0  0  0  0  0  0  0  0  0
  -52.9777   -3.5048   66.2038 H   0  0  0  0  0  0  0  0  0  0  0  0
  -53.3502   -1.0089   68.0472 H   0  0  0  0  0  0  0  0  0  0  0  0
  -54.6357   -3.5472   73.7352 C   0  0  0  0  0  0  0  0  0  0  0  0
  -54.1649   -3.5527   72.3705 O   0  0  0  0  0  0  0  0  0  0  0  0
  -52.7336   -3.7711   72.3759 C   0  0  0  0  0  0  0  0  0  0  0  0
  -52.2596   -3.5652   73.8070 C   0  0  0  0  0  0  0  0  0  0  0  0
  -53.4639   -4.0306   74.5932 C   0  0  0  0  0  0  0  0  0  0  0  0
  -53.4174   -5.4608   74.6684 O   0  0  0  0  0  0  0  0  0  0  0  0
  -53.9176   -5.8376   73.9223 H   0  0  0  0  0  0  0  0  0  0  0  0
  -54.7962   -1.8131   75.4284 O   0  0  0  0  0  0  0  0  0  0  0  0
  -55.1075   -2.1319   74.0806 C   0  0  0  0  0  0  0  0  0  0  0  0
  -55.2224   -0.9606   75.6279 H   0  0  0  0  0  0  0  0  0  0  0  0
 21 22  1  0  0  0
 22 14  1  0  0  0
 14 15  1  0  0  0
 15 16  1  0  0  0
 16  1  1  0  0  0
  1  2  1  0  0  0
  2  3  2  0  0  0
  3  4  1  0  0  0
  4  5  2  0  0  0
  1  5  1  0  0  0
  5  6  1  0  0  0
  6  7  2  0  0  0
  7  8  1  0  0  0
  8  9  1  0  0  0
  9 10  1  0  0  0
  4 10  1  0  0  0
 10 11  1  0  0  0
 16 17  1  0  0  0
 17 18  1  0  0  0
 14 18  1  0  0  0
 18 19  1  0  0  0
 21 23  1  0  0  0
  8 12  1  0  0  0
 11 13  1  0  0  0
 19 20  1  0  0  0
M  END
> <minimizedAffinity>
-6.61848

$$$$
ligand_45


 23 25  0  0  0  0  0  0  0  0999 V2000
  -54.7560    5.2838   74.2672 N   0  0  0  0  0  0  0  0  0  0  0  0
  -54.5229    6.3253   73.4132 C   0  0  0  0  0  0  0  0  0  0  0  0
  -54.1091    7.3951   74.0488 N   0  0  0  0  0  0  0  0  0  0  0  0
  -54.0409    7.0157   75.3714 C   0  0  0  0  0  0  0  0  0  0  0  0
  -54.4821    5.7122   75.5489 C   0  0  0  0  0  0  0  0  0  0  0  0
  -54.6261    4.8783   76.6071 N   0  0  0  0  0  0  0  0  0  0  0  0
  -54.4752    5.3152   77.8099 C   0  0  0  0  0  0  0  0  0  0  0  0
  -54.2280    6.5429   78.3655 N   0  0  0  0  0  0  0  0  0  0  0  0
  -54.3820    7.8334   77.7020 C   0  0  0  0  0  0  0  0  0  0  0  0
  -53.5441    7.9494   76.4200 C   0  0  0  0  0  0  0  0  0  0  0  0
  -52.1623    7.7149   76.7375 O   0  0  0  0  0  0  0  0  0  0  0  0
  -54.0845    6.5873   79.3689 H   0  0  0  0  0  0  0  0  0  0  0  0
  -52.1154    6.7643   76.9486 H   0  0  0  0  0  0  0  0  0  0  0  0
  -54.4048    2.4191   72.2948 C   0  0  0  0  0  0  0  0  0  0  0  0
  -54.0469    3.1769   73.4703 O   0  0  0  0  0  0  0  0  0  0  0  0
  -55.1941    3.9570   73.8847 C   0  0  0  0  0  0  0  0  0  0  0  0
  -56.1884    3.9282   72.7333 C   0  0  0  0  0  0  0  0  0  0  0  0
  -55.9203    2.5650   72.1376 C   0  0  0  0  0  0  0  0  0  0  0  0
  -56.6294    1.5942   72.9175 O   0  0  0  0  0  0  0  0  0  0  0  0
  -56.0457    1.2607   73.6224 H   0  0  0  0  0  0  0  0  0  0  0  0
  -52.4842    3.7062   71.5505 O   0  0  0  0  0  0  0  0  0  0  0  0
  -53.6084    2.9627   71.1053 C   0  0  0  0  0  0  0  0  0  0  0  0
  -52.0885    4.1263   70.7662 H   0  0  0  0  0  0  0  0  0  0  0  0
 21 22  1  0  0  0
 22 14  1  0  0  0
 14 15  1  0  0  0
 15 16  1  0  0  0
 16  1  1  0  0  0
  1  2  1  0  0  0
  2  3  2  0  0  0
  3  4  1  0  0  0
  4  5  2  0  0  0
  1  5  1  0  0  0
  5  6  1  0  0  0
  6  7  2  0  0  0
  7  8  1  0  0  0
  8  9  1  0  0  0
  9 10  1  0  0  0
  4 10  1  0  0  0
 10 11  1  0  0  0
 16 17  1  0  0  0
 17 18  1  0  0  0
 14 18  1  0  0  0
 18 19  1  0  0  0
 21 23  1  0  0  0
  8 12  1  0  0  0
 11 13  1  0  0  0
 19 20  1  0  0  0
M  END
> <minimizedAffinity>
-6.61573

$$$$
ligand_45


 23 25  0  0  0  0  0  0  0  0999 V2000
  -52.5909   -4.5356   74.8089 N   0  0  0  0  0  0  0  0  0  0  0  0
  -51.5597   -3.6422   74.8902 C   0  0  0  0  0  0  0  0  0  0  0  0
  -50.5349   -4.1368   75.5422 N   0  0  0  0  0  0  0  0  0  0  0  0
  -50.9108   -5.4214   75.8684 C   0  0  0  0  0  0  0  0  0  0  0  0
  -52.2106   -5.6885   75.4627 C   0  0  0  0  0  0  0  0  0  0  0  0
  -53.0452   -6.7532   75.5386 N   0  0  0  0  0  0  0  0  0  0  0  0
  -52.7281   -7.7843   76.2433 C   0  0  0  0  0  0  0  0  0  0  0  0
  -51.6789   -8.1055   77.0638 N   0  0  0  0  0  0  0  0  0  0  0  0
  -50.7176   -7.1689   77.6363 C   0  0  0  0  0  0  0  0  0  0  0  0
  -49.9782   -6.3461   76.5708 C   0  0  0  0  0  0  0  0  0  0  0  0
  -49.3193   -7.2400   75.6587 O   0  0  0  0  0  0  0  0  0  0  0  0
  -51.6502   -9.0436   77.4488 H   0  0  0  0  0  0  0  0  0  0  0  0
  -50.0428   -7.6567   75.1554 H   0  0  0  0  0  0  0  0  0  0  0  0
  -54.4585   -2.9870   72.2921 C   0  0  0  0  0  0  0  0  0  0  0  0
  -53.6060   -4.0671   72.7287 O   0  0  0  0  0  0  0  0  0  0  0  0
  -53.8533   -4.3124   74.1341 C   0  0  0  0  0  0  0  0  0  0  0  0
  -54.6475   -3.1250   74.6577 C   0  0  0  0  0  0  0  0  0  0  0  0
  -55.4447   -2.7326   73.4348 C   0  0  0  0  0  0  0  0  0  0  0  0
  -56.5842   -3.5977   73.3531 O   0  0  0  0  0  0  0  0  0  0  0  0
  -56.3614   -4.3705   72.8037 H   0  0  0  0  0  0  0  0  0  0  0  0
  -52.2357   -2.1798   71.7383 O   0  0  0  0  0  0  0  0  0  0  0  0
  -53.5793   -1.7785   71.9586 C   0  0  0  0  0  0  0  0  0  0  0  0
  -51.7038   -1.3686   71.6528 H   0  0  0  0  0  0  0  0  0  0  0  0
 21 22  1  0  0  0
 22 14  1  0  0  0
 14 15  1  0  0  0
 15 16  1  0  0  0
 16  1  1  0  0  0
  1  2  1  0  0  0
  2  3  2  0  0  0
  3  4  1  0  0  0
  4  5  2  0  0  0
  1  5  1  0  0  0
  5  6  1  0  0  0
  6  7  2  0  0  0
  7  8  1  0  0  0
  8  9  1  0  0  0
  9 10  1  0  0  0
  4 10  1  0  0  0
 10 11  1  0  0  0
 16 17  1  0  0  0
 17 18  1  0  0  0
 14 18  1  0  0  0
 18 19  1  0  0  0
 21 23  1  0  0  0
  8 12  1  0  0  0
 11 13  1  0  0  0
 19 20  1  0  0  0
M  END
> <minimizedAffinity>
-6.51740

$$$$
