ligand_16


 34 38  0  0  0  0  0  0  0  0999 V2000
  -56.6306    5.8319   73.9927 C   0  0  0  0  0  0  0  0  0  0  0  0
  -55.4386    4.9876   73.5753 C   0  0  0  0  0  0  0  0  0  0  0  0
  -54.1523    5.6603   74.1013 C   0  0  0  0  0  0  0  0  0  0  0  0
  -55.5291    3.6886   74.1491 O   0  0  0  0  0  0  0  0  0  0  0  0
  -54.6891    2.9110   73.3067 C   0  0  0  0  0  0  0  0  0  0  0  0
  -55.2578    1.5151   73.0819 C   0  0  0  0  0  0  0  0  0  0  0  0
  -54.6659    1.2638   71.7125 C   0  0  0  0  0  0  0  0  0  0  0  0
  -54.7168   -0.1315   71.0914 C   0  0  0  0  0  0  0  0  0  0  0  0
  -54.1306   -1.1328   72.1238 C   0  0  0  0  0  0  0  0  0  0  0  0
  -53.6356   -2.4563   71.5606 C   0  0  0  0  0  0  0  0  0  0  0  0
  -52.9281   -3.0836   72.5438 F   0  0  0  0  0  0  0  0  0  0  0  0
  -52.7806   -2.1689   70.3625 C   0  0  0  0  0  0  0  0  0  0  0  0
  -51.4394   -2.2836   70.4236 C   0  0  0  0  0  0  0  0  0  0  0  0
  -50.5775   -1.7927   69.3251 C   0  0  0  0  0  0  0  0  0  0  0  0
  -49.3739   -1.6554   69.4607 O   0  0  0  0  0  0  0  0  0  0  0  0
  -51.2496   -1.5039   68.0420 C   0  0  0  0  0  0  0  0  0  0  0  0
  -52.5835   -1.3926   67.9865 C   0  0  0  0  0  0  0  0  0  0  0  0
  -53.5108   -1.4771   69.1966 C   0  0  0  0  0  0  0  0  0  0  0  0
  -54.7538   -2.2744   68.7580 C   0  0  0  0  0  0  0  0  0  0  0  0
  -53.8742   -0.0584   69.7679 C   0  0  0  0  0  0  0  0  0  0  0  0
  -52.6471    0.4967   70.1145 F   0  0  0  0  0  0  0  0  0  0  0  0
  -54.5276    1.0011   68.8383 C   0  0  0  0  0  0  0  0  0  0  0  0
  -53.8881    1.0939   67.5666 O   0  0  0  0  0  0  0  0  0  0  0  0
  -54.4378    2.4098   69.4929 C   0  0  0  0  0  0  0  0  0  0  0  0
  -55.1177    2.5032   70.8877 C   0  0  0  0  0  0  0  0  0  0  0  0
  -56.6317    2.6379   70.6252 C   0  0  0  0  0  0  0  0  0  0  0  0
  -54.6373    3.6210   71.9173 C   0  0  0  0  0  0  0  0  0  0  0  0
  -55.4389    4.7940   72.1407 O   0  0  0  0  0  0  0  0  0  0  0  0
  -52.9546    1.3345   67.7288 H   0  0  0  0  0  0  0  0  0  0  0  0
  -53.2597    4.1556   71.5023 C   0  0  0  0  0  0  0  0  0  0  0  0
  -52.1999    3.6408   71.8647 O   0  0  0  0  0  0  0  0  0  0  0  0
  -53.2600    5.3541   70.5487 C   0  0  0  0  0  0  0  0  0  0  0  0
  -52.1328    6.1882   70.7628 O   0  0  0  0  0  0  0  0  0  0  0  0
  -52.0055    6.2359   71.7306 H   0  0  0  0  0  0  0  0  0  0  0  0
  1  2  1  0  0  0
  2  3  1  0  0  0
  2  4  1  0  0  0
  4  5  1  0  0  0
  5  6  1  0  0  0
  6  7  1  0  0  0
  7  8  1  0  0  0
  8  9  1  0  0  0
  9 10  1  0  0  0
 10 11  1  0  0  0
 10 12  1  0  0  0
 12 13  2  0  0  0
 13 14  1  0  0  0
 14 15  2  0  0  0
 14 16  1  0  0  0
 16 17  2  0  0  0
 17 18  1  0  0  0
 12 18  1  0  0  0
 18 19  1  0  0  0
 18 20  1  0  0  0
  8 20  1  0  0  0
 20 21  1  0  0  0
 20 22  1  0  0  0
 22 23  1  0  0  0
 22 24  1  0  0  0
 24 25  1  0  0  0
  7 25  1  0  0  0
 25 26  1  0  0  0
 25 27  1  0  0  0
  5 27  1  0  0  0
 27 30  1  0  0  0
 30 31  2  0  0  0
 30 32  1  0  0  0
 32 33  1  0  0  0
 27 28  1  0  0  0
  2 28  1  0  0  0
 23 29  1  0  0  0
 33 34  1  0  0  0
M  END
> <minimizedAffinity>
-8.33721

$$$$
ligand_16


 34 38  0  0  0  0  0  0  0  0999 V2000
  -56.2915   -3.9153   76.9150 C   0  0  0  0  0  0  0  0  0  0  0  0
  -55.6667   -4.2637   75.5748 C   0  0  0  0  0  0  0  0  0  0  0  0
  -55.1816   -5.7286   75.6253 C   0  0  0  0  0  0  0  0  0  0  0  0
  -56.6320   -4.1492   74.5357 O   0  0  0  0  0  0  0  0  0  0  0  0
  -55.8292   -4.0015   73.3723 C   0  0  0  0  0  0  0  0  0  0  0  0
  -56.4479   -3.0194   72.3849 C   0  0  0  0  0  0  0  0  0  0  0  0
  -55.1681   -2.5303   71.7433 C   0  0  0  0  0  0  0  0  0  0  0  0
  -55.2140   -1.6808   70.4738 C   0  0  0  0  0  0  0  0  0  0  0  0
  -56.0869   -2.4314   69.4313 C   0  0  0  0  0  0  0  0  0  0  0  0
  -55.8752   -2.0361   67.9777 C   0  0  0  0  0  0  0  0  0  0  0  0
  -56.5125   -2.9600   67.2025 F   0  0  0  0  0  0  0  0  0  0  0  0
  -54.4006   -2.0098   67.7059 C   0  0  0  0  0  0  0  0  0  0  0  0
  -53.8097   -2.9858   66.9890 C   0  0  0  0  0  0  0  0  0  0  0  0
  -52.3357   -3.0885   66.9035 C   0  0  0  0  0  0  0  0  0  0  0  0
  -51.7815   -4.0882   66.4800 O   0  0  0  0  0  0  0  0  0  0  0  0
  -51.5687   -1.9015   67.3327 C   0  0  0  0  0  0  0  0  0  0  0  0
  -52.1615   -0.9332   68.0439 C   0  0  0  0  0  0  0  0  0  0  0  0
  -53.6086   -0.9771   68.5289 C   0  0  0  0  0  0  0  0  0  0  0  0
  -54.1851    0.4412   68.3581 C   0  0  0  0  0  0  0  0  0  0  0  0
  -53.7254   -1.5024   70.0060 C   0  0  0  0  0  0  0  0  0  0  0  0
  -53.1727   -2.7778   69.9614 F   0  0  0  0  0  0  0  0  0  0  0  0
  -52.9458   -0.7841   71.1418 C   0  0  0  0  0  0  0  0  0  0  0  0
  -51.5935   -0.4960   70.7911 O   0  0  0  0  0  0  0  0  0  0  0  0
  -52.9015   -1.6865   72.4086 C   0  0  0  0  0  0  0  0  0  0  0  0
  -54.3031   -2.0785   72.9549 C   0  0  0  0  0  0  0  0  0  0  0  0
  -54.8169   -0.8594   73.7482 C   0  0  0  0  0  0  0  0  0  0  0  0
  -54.4592   -3.4050   73.8245 C   0  0  0  0  0  0  0  0  0  0  0  0
  -54.6153   -3.3225   75.2519 O   0  0  0  0  0  0  0  0  0  0  0  0
  -51.1597   -1.3478   70.5866 H   0  0  0  0  0  0  0  0  0  0  0  0
  -53.2422   -4.3155   73.6110 C   0  0  0  0  0  0  0  0  0  0  0  0
  -53.0134   -4.8964   72.5480 O   0  0  0  0  0  0  0  0  0  0  0  0
  -52.2697   -4.4298   74.7887 C   0  0  0  0  0  0  0  0  0  0  0  0
  -51.5711   -3.2143   75.0048 O   0  0  0  0  0  0  0  0  0  0  0  0
  -51.3489   -2.8634   74.1202 H   0  0  0  0  0  0  0  0  0  0  0  0
  1  2  1  0  0  0
  2  3  1  0  0  0
  2  4  1  0  0  0
  4  5  1  0  0  0
  5  6  1  0  0  0
  6  7  1  0  0  0
  7  8  1  0  0  0
  8  9  1  0  0  0
  9 10  1  0  0  0
 10 11  1  0  0  0
 10 12  1  0  0  0
 12 13  2  0  0  0
 13 14  1  0  0  0
 14 15  2  0  0  0
 14 16  1  0  0  0
 16 17  2  0  0  0
 17 18  1  0  0  0
 12 18  1  0  0  0
 18 19  1  0  0  0
 18 20  1  0  0  0
  8 20  1  0  0  0
 20 21  1  0  0  0
 20 22  1  0  0  0
 22 23  1  0  0  0
 22 24  1  0  0  0
 24 25  1  0  0  0
  7 25  1  0  0  0
 25 26  1  0  0  0
 25 27  1  0  0  0
  5 27  1  0  0  0
 27 30  1  0  0  0
 30 31  2  0  0  0
 30 32  1  0  0  0
 32 33  1  0  0  0
 27 28  1  0  0  0
  2 28  1  0  0  0
 23 29  1  0  0  0
 33 34  1  0  0  0
M  END
> <minimizedAffinity>
-7.67284

$$$$
ligand_16


 34 38  0  0  0  0  0  0  0  0999 V2000
  -55.5598    5.4957   71.8391 C   0  0  0  0  0  0  0  0  0  0  0  0
  -55.0318    4.5343   70.7879 C   0  0  0  0  0  0  0  0  0  0  0  0
  -55.0800    5.2354   69.4131 C   0  0  0  0  0  0  0  0  0  0  0  0
  -53.6791    4.1925   71.0669 O   0  0  0  0  0  0  0  0  0  0  0  0
  -53.5073    2.9737   70.3563 C   0  0  0  0  0  0  0  0  0  0  0  0
  -52.6308    1.9939   71.1270 C   0  0  0  0  0  0  0  0  0  0  0  0
  -53.2226    0.7107   70.5866 C   0  0  0  0  0  0  0  0  0  0  0  0
  -52.5351   -0.6289   70.8473 C   0  0  0  0  0  0  0  0  0  0  0  0
  -51.0508   -0.4942   70.4105 C   0  0  0  0  0  0  0  0  0  0  0  0
  -50.3214   -1.7972   70.1204 C   0  0  0  0  0  0  0  0  0  0  0  0
  -49.1436   -1.4825   69.5084 F   0  0  0  0  0  0  0  0  0  0  0  0
  -51.1939   -2.6402   69.2389 C   0  0  0  0  0  0  0  0  0  0  0  0
  -50.9160   -2.7926   67.9293 C   0  0  0  0  0  0  0  0  0  0  0  0
  -51.8832   -3.4332   67.0102 C   0  0  0  0  0  0  0  0  0  0  0  0
  -51.7694   -3.3591   65.7988 O   0  0  0  0  0  0  0  0  0  0  0  0
  -52.9818   -4.1942   67.6391 C   0  0  0  0  0  0  0  0  0  0  0  0
  -53.2528   -4.0401   68.9420 C   0  0  0  0  0  0  0  0  0  0  0  0
  -52.5380   -3.0558   69.8649 C   0  0  0  0  0  0  0  0  0  0  0  0
  -52.3340   -3.7694   71.2148 C   0  0  0  0  0  0  0  0  0  0  0  0
  -53.3213   -1.7007   70.0105 C   0  0  0  0  0  0  0  0  0  0  0  0
  -53.3969   -1.2067   68.7128 F   0  0  0  0  0  0  0  0  0  0  0  0
  -54.7941   -1.7127   70.5047 C   0  0  0  0  0  0  0  0  0  0  0  0
  -55.5862   -2.7122   69.8656 O   0  0  0  0  0  0  0  0  0  0  0  0
  -55.4667   -0.3424   70.2033 C   0  0  0  0  0  0  0  0  0  0  0  0
  -54.7467    0.8720   70.8540 C   0  0  0  0  0  0  0  0  0  0  0  0
  -55.1851    0.8960   72.3328 C   0  0  0  0  0  0  0  0  0  0  0  0
  -54.9166    2.3188   70.2074 C   0  0  0  0  0  0  0  0  0  0  0  0
  -55.7757    3.2930   70.8249 O   0  0  0  0  0  0  0  0  0  0  0  0
  -55.5662   -2.5275   68.9058 H   0  0  0  0  0  0  0  0  0  0  0  0
  -55.4338    2.1900   68.7681 C   0  0  0  0  0  0  0  0  0  0  0  0
  -56.6319    2.1221   68.4861 O   0  0  0  0  0  0  0  0  0  0  0  0
  -54.3713    2.2057   67.6651 C   0  0  0  0  0  0  0  0  0  0  0  0
  -54.4039    1.0144   66.8958 O   0  0  0  0  0  0  0  0  0  0  0  0
  -54.5528    0.2832   67.5269 H   0  0  0  0  0  0  0  0  0  0  0  0
  1  2  1  0  0  0
  2  3  1  0  0  0
  2  4  1  0  0  0
  4  5  1  0  0  0
  5  6  1  0  0  0
  6  7  1  0  0  0
  7  8  1  0  0  0
  8  9  1  0  0  0
  9 10  1  0  0  0
 10 11  1  0  0  0
 10 12  1  0  0  0
 12 13  2  0  0  0
 13 14  1  0  0  0
 14 15  2  0  0  0
 14 16  1  0  0  0
 16 17  2  0  0  0
 17 18  1  0  0  0
 12 18  1  0  0  0
 18 19  1  0  0  0
 18 20  1  0  0  0
  8 20  1  0  0  0
 20 21  1  0  0  0
 20 22  1  0  0  0
 22 23  1  0  0  0
 22 24  1  0  0  0
 24 25  1  0  0  0
  7 25  1  0  0  0
 25 26  1  0  0  0
 25 27  1  0  0  0
  5 27  1  0  0  0
 27 30  1  0  0  0
 30 31  2  0  0  0
 30 32  1  0  0  0
 32 33  1  0  0  0
 27 28  1  0  0  0
  2 28  1  0  0  0
 23 29  1  0  0  0
 33 34  1  0  0  0
M  END
> <minimizedAffinity>
-7.52433

$$$$
ligand_16


 34 38  0  0  0  0  0  0  0  0999 V2000
  -56.6320    5.3485   68.9533 C   0  0  0  0  0  0  0  0  0  0  0  0
  -55.9069    4.4662   69.9552 C   0  0  0  0  0  0  0  0  0  0  0  0
  -55.8301    5.2151   71.3033 C   0  0  0  0  0  0  0  0  0  0  0  0
  -56.6265    3.2556   70.1581 O   0  0  0  0  0  0  0  0  0  0  0  0
  -55.6333    2.3792   70.6731 C   0  0  0  0  0  0  0  0  0  0  0  0
  -55.8081    0.9608   70.1441 C   0  0  0  0  0  0  0  0  0  0  0  0
  -54.3583    0.5326   70.2042 C   0  0  0  0  0  0  0  0  0  0  0  0
  -53.9755   -0.9340   70.0099 C   0  0  0  0  0  0  0  0  0  0  0  0
  -54.8291   -1.7819   70.9921 C   0  0  0  0  0  0  0  0  0  0  0  0
  -54.2875   -3.1647   71.3215 C   0  0  0  0  0  0  0  0  0  0  0  0
  -55.0051   -3.6477   72.3763 F   0  0  0  0  0  0  0  0  0  0  0  0
  -52.8319   -3.0336   71.6575 C   0  0  0  0  0  0  0  0  0  0  0  0
  -52.4027   -3.1271   72.9313 C   0  0  0  0  0  0  0  0  0  0  0  0
  -51.0114   -2.7810   73.2986 C   0  0  0  0  0  0  0  0  0  0  0  0
  -50.6713   -2.6160   74.4575 O   0  0  0  0  0  0  0  0  0  0  0  0
  -50.0459   -2.6735   72.1860 C   0  0  0  0  0  0  0  0  0  0  0  0
  -50.4779   -2.5826   70.9211 C   0  0  0  0  0  0  0  0  0  0  0  0
  -51.9468   -2.5116   70.5106 C   0  0  0  0  0  0  0  0  0  0  0  0
  -52.1031   -3.3717   69.2422 C   0  0  0  0  0  0  0  0  0  0  0  0
  -52.4352   -1.0322   70.3009 C   0  0  0  0  0  0  0  0  0  0  0  0
  -52.2296   -0.4246   71.5348 F   0  0  0  0  0  0  0  0  0  0  0  0
  -51.6942   -0.1134   69.2907 C   0  0  0  0  0  0  0  0  0  0  0  0
  -50.2747   -0.1869   69.4110 O   0  0  0  0  0  0  0  0  0  0  0  0
  -52.0917    1.3714   69.5327 C   0  0  0  0  0  0  0  0  0  0  0  0
  -53.6169    1.6457   69.4093 C   0  0  0  0  0  0  0  0  0  0  0  0
  -53.9226    1.7303   67.8998 C   0  0  0  0  0  0  0  0  0  0  0  0
  -54.2493    2.8961   70.1687 C   0  0  0  0  0  0  0  0  0  0  0  0
  -54.6106    4.0813   69.4386 O   0  0  0  0  0  0  0  0  0  0  0  0
  -50.0471    0.0816   70.3229 H   0  0  0  0  0  0  0  0  0  0  0  0
  -53.2895    3.3822   71.2634 C   0  0  0  0  0  0  0  0  0  0  0  0
  -53.2250    2.8660   72.3810 O   0  0  0  0  0  0  0  0  0  0  0  0
  -52.3521    4.5305   70.8780 C   0  0  0  0  0  0  0  0  0  0  0  0
  -52.8865    5.7876   71.2603 O   0  0  0  0  0  0  0  0  0  0  0  0
  -53.8437    5.7500   71.0668 H   0  0  0  0  0  0  0  0  0  0  0  0
  1  2  1  0  0  0
  2  3  1  0  0  0
  2  4  1  0  0  0
  4  5  1  0  0  0
  5  6  1  0  0  0
  6  7  1  0  0  0
  7  8  1  0  0  0
  8  9  1  0  0  0
  9 10  1  0  0  0
 10 11  1  0  0  0
 10 12  1  0  0  0
 12 13  2  0  0  0
 13 14  1  0  0  0
 14 15  2  0  0  0
 14 16  1  0  0  0
 16 17  2  0  0  0
 17 18  1  0  0  0
 12 18  1  0  0  0
 18 19  1  0  0  0
 18 20  1  0  0  0
  8 20  1  0  0  0
 20 21  1  0  0  0
 20 22  1  0  0  0
 22 23  1  0  0  0
 22 24  1  0  0  0
 24 25  1  0  0  0
  7 25  1  0  0  0
 25 26  1  0  0  0
 25 27  1  0  0  0
  5 27  1  0  0  0
 27 30  1  0  0  0
 30 31  2  0  0  0
 30 32  1  0  0  0
 32 33  1  0  0  0
 27 28  1  0  0  0
  2 28  1  0  0  0
 23 29  1  0  0  0
 33 34  1  0  0  0
M  END
> <minimizedAffinity>
-5.93644

$$$$
ligand_16


 34 38  0  0  0  0  0  0  0  0999 V2000
  -56.1070    5.5262   68.8176 C   0  0  0  0  0  0  0  0  0  0  0  0
  -55.7655    4.5389   69.9205 C   0  0  0  0  0  0  0  0  0  0  0  0
  -55.9749    5.2336   71.2834 C   0  0  0  0  0  0  0  0  0  0  0  0
  -56.6301    3.4106   69.8577 O   0  0  0  0  0  0  0  0  0  0  0  0
  -55.9018    2.4137   70.5616 C   0  0  0  0  0  0  0  0  0  0  0  0
  -56.0704    1.0402   69.9234 C   0  0  0  0  0  0  0  0  0  0  0  0
  -54.7387    0.4513   70.3342 C   0  0  0  0  0  0  0  0  0  0  0  0
  -54.4663   -1.0424   70.1610 C   0  0  0  0  0  0  0  0  0  0  0  0
  -55.6301   -1.8188   70.8355 C   0  0  0  0  0  0  0  0  0  0  0  0
  -55.3360   -3.2627   71.2132 C   0  0  0  0  0  0  0  0  0  0  0  0
  -56.3523   -3.6941   72.0145 F   0  0  0  0  0  0  0  0  0  0  0  0
  -54.0162   -3.3051   71.9241 C   0  0  0  0  0  0  0  0  0  0  0  0
  -53.9520   -3.4841   73.2580 C   0  0  0  0  0  0  0  0  0  0  0  0
  -52.6807   -3.3066   73.9947 C   0  0  0  0  0  0  0  0  0  0  0  0
  -52.6457   -3.2155   75.2098 O   0  0  0  0  0  0  0  0  0  0  0  0
  -51.4489   -3.2742   73.1804 C   0  0  0  0  0  0  0  0  0  0  0  0
  -51.5184   -3.0976   71.8543 C   0  0  0  0  0  0  0  0  0  0  0  0
  -52.8111   -2.8508   71.0800 C   0  0  0  0  0  0  0  0  0  0  0  0
  -52.7101   -3.6496   69.7667 C   0  0  0  0  0  0  0  0  0  0  0  0
  -53.0762   -1.3205   70.8370 C   0  0  0  0  0  0  0  0  0  0  0  0
  -53.1459   -0.7770   72.1152 F   0  0  0  0  0  0  0  0  0  0  0  0
  -52.0060   -0.4603   70.1104 C   0  0  0  0  0  0  0  0  0  0  0  0
  -50.6840   -0.6953   70.5919 O   0  0  0  0  0  0  0  0  0  0  0  0
  -52.3033    1.0517   70.3267 C   0  0  0  0  0  0  0  0  0  0  0  0
  -53.7058    1.4981   69.8264 C   0  0  0  0  0  0  0  0  0  0  0  0
  -53.5900    1.6616   68.2970 C   0  0  0  0  0  0  0  0  0  0  0  0
  -54.3891    2.7879   70.4664 C   0  0  0  0  0  0  0  0  0  0  0  0
  -54.4237    4.0274   69.7379 O   0  0  0  0  0  0  0  0  0  0  0  0
  -50.6809   -0.4814   71.5457 H   0  0  0  0  0  0  0  0  0  0  0  0
  -53.7107    3.1307   71.7999 C   0  0  0  0  0  0  0  0  0  0  0  0
  -52.6498    3.7540   71.8756 O   0  0  0  0  0  0  0  0  0  0  0  0
  -54.4570    2.7021   73.0667 C   0  0  0  0  0  0  0  0  0  0  0  0
  -54.3377    3.6736   74.0934 O   0  0  0  0  0  0  0  0  0  0  0  0
  -53.4153    3.9952   74.0622 H   0  0  0  0  0  0  0  0  0  0  0  0
  1  2  1  0  0  0
  2  3  1  0  0  0
  2  4  1  0  0  0
  4  5  1  0  0  0
  5  6  1  0  0  0
  6  7  1  0  0  0
  7  8  1  0  0  0
  8  9  1  0  0  0
  9 10  1  0  0  0
 10 11  1  0  0  0
 10 12  1  0  0  0
 12 13  2  0  0  0
 13 14  1  0  0  0
 14 15  2  0  0  0
 14 16  1  0  0  0
 16 17  2  0  0  0
 17 18  1  0  0  0
 12 18  1  0  0  0
 18 19  1  0  0  0
 18 20  1  0  0  0
  8 20  1  0  0  0
 20 21  1  0  0  0
 20 22  1  0  0  0
 22 23  1  0  0  0
 22 24  1  0  0  0
 24 25  1  0  0  0
  7 25  1  0  0  0
 25 26  1  0  0  0
 25 27  1  0  0  0
  5 27  1  0  0  0
 27 30  1  0  0  0
 30 31  2  0  0  0
 30 32  1  0  0  0
 32 33  1  0  0  0
 27 28  1  0  0  0
  2 28  1  0  0  0
 23 29  1  0  0  0
 33 34  1  0  0  0
M  END
> <minimizedAffinity>
-5.84205

$$$$
