ligand_35


 25 27  0  0  0  0  0  0  0  0999 V2000
  -49.8197   -4.7821   76.0456 C   0  0  0  0  0  0  0  0  0  0  0  0
  -49.0084   -4.2058   77.0177 O   0  0  0  0  0  0  0  0  0  0  0  0
  -49.1041   -4.6389   78.3142 C   0  0  0  0  0  0  0  0  0  0  0  0
  -48.4384   -3.8742   79.2751 C   0  0  0  0  0  0  0  0  0  0  0  0
  -48.4860   -4.2314   80.6239 C   0  0  0  0  0  0  0  0  0  0  0  0
  -49.1953   -5.3711   81.0013 C   0  0  0  0  0  0  0  0  0  0  0  0
  -49.8469   -6.1515   80.0366 C   0  0  0  0  0  0  0  0  0  0  0  0
  -49.8161   -5.7745   78.6861 C   0  0  0  0  0  0  0  0  0  0  0  0
  -50.5212   -6.5016   77.6210 C   0  0  0  0  0  0  0  0  0  0  0  0
  -50.9746   -7.6293   77.7932 O   0  0  0  0  0  0  0  0  0  0  0  0
  -50.6295   -5.8355   76.2891 C   0  0  0  0  0  0  0  0  0  0  0  0
  -49.1794   -2.7589   72.2817 C   0  0  0  0  0  0  0  0  0  0  0  0
  -48.3049   -3.7670   72.6776 C   0  0  0  0  0  0  0  0  0  0  0  0
  -48.5249   -4.4743   73.8668 C   0  0  0  0  0  0  0  0  0  0  0  0
  -49.6155   -4.1774   74.6967 C   0  0  0  0  0  0  0  0  0  0  0  0
  -50.5339   -3.2175   74.2311 C   0  0  0  0  0  0  0  0  0  0  0  0
  -50.3231   -2.5182   73.0358 C   0  0  0  0  0  0  0  0  0  0  0  0
  -49.9266   -1.4593   70.4679 C   0  0  0  0  0  0  0  0  0  0  0  0
  -48.8374   -2.0850   71.1422 O   0  0  0  0  0  0  0  0  0  0  0  0
  -47.8229   -3.3814   81.4643 O   0  0  0  0  0  0  0  0  0  0  0  0
  -47.4477   -2.1142   80.9368 C   0  0  0  0  0  0  0  0  0  0  0  0
  -50.6079   -7.1802   80.5263 O   0  0  0  0  0  0  0  0  0  0  0  0
  -50.9017   -7.0419   81.9190 C   0  0  0  0  0  0  0  0  0  0  0  0
  -51.4545   -6.3972   75.3259 O   0  0  0  0  0  0  0  0  0  0  0  0
  -52.7783   -5.8579   75.3726 C   0  0  0  0  0  0  0  0  0  0  0  0
 18 19  1  0  0  0
 19 12  1  0  0  0
 12 13  2  0  0  0
 13 14  1  0  0  0
 14 15  2  0  0  0
 15  1  1  0  0  0
  1  2  1  0  0  0
  2  3  1  0  0  0
  3  4  2  0  0  0
  4  5  1  0  0  0
  5 20  1  0  0  0
 20 21  1  0  0  0
  5  6  2  0  0  0
  6  7  1  0  0  0
  7 22  1  0  0  0
 22 23  1  0  0  0
  7  8  2  0  0  0
  3  8  1  0  0  0
  8  9  1  0  0  0
  9 10  2  0  0  0
  9 11  1  0  0  0
  1 11  2  0  0  0
 11 24  1  0  0  0
 24 25  1  0  0  0
 15 16  1  0  0  0
 16 17  2  0  0  0
 12 17  1  0  0  0
M  END
> <minimizedAffinity>
-7.39556

$$$$
ligand_35


 25 27  0  0  0  0  0  0  0  0999 V2000
  -50.1088   -5.9142   77.4774 C   0  0  0  0  0  0  0  0  0  0  0  0
  -51.2696   -5.8719   76.7117 O   0  0  0  0  0  0  0  0  0  0  0  0
  -51.2575   -5.2108   75.5115 C   0  0  0  0  0  0  0  0  0  0  0  0
  -52.4979   -5.0073   74.9022 C   0  0  0  0  0  0  0  0  0  0  0  0
  -52.5873   -4.3351   73.6818 C   0  0  0  0  0  0  0  0  0  0  0  0
  -51.4206   -3.8803   73.0684 C   0  0  0  0  0  0  0  0  0  0  0  0
  -50.1730   -4.1015   73.6677 C   0  0  0  0  0  0  0  0  0  0  0  0
  -50.0911   -4.7557   74.9055 C   0  0  0  0  0  0  0  0  0  0  0  0
  -48.8309   -4.9743   75.6296 C   0  0  0  0  0  0  0  0  0  0  0  0
  -47.7374   -4.8306   75.0906 O   0  0  0  0  0  0  0  0  0  0  0  0
  -48.9233   -5.4287   77.0490 C   0  0  0  0  0  0  0  0  0  0  0  0
  -50.8742   -7.8124   81.2829 C   0  0  0  0  0  0  0  0  0  0  0  0
  -51.1440   -8.5021   80.1042 C   0  0  0  0  0  0  0  0  0  0  0  0
  -50.8516   -7.9279   78.8601 C   0  0  0  0  0  0  0  0  0  0  0  0
  -50.2987   -6.6427   78.7658 C   0  0  0  0  0  0  0  0  0  0  0  0
  -49.9522   -6.0030   79.9710 C   0  0  0  0  0  0  0  0  0  0  0  0
  -50.2313   -6.5808   81.2162 C   0  0  0  0  0  0  0  0  0  0  0  0
  -51.7890   -7.5615   83.4362 C   0  0  0  0  0  0  0  0  0  0  0  0
  -51.2598   -8.4321   82.4391 O   0  0  0  0  0  0  0  0  0  0  0  0
  -53.8602   -4.1716   73.2109 O   0  0  0  0  0  0  0  0  0  0  0  0
  -54.9064   -4.1421   74.1750 C   0  0  0  0  0  0  0  0  0  0  0  0
  -49.1056   -3.5142   73.0409 O   0  0  0  0  0  0  0  0  0  0  0  0
  -49.4166   -2.2282   72.4983 C   0  0  0  0  0  0  0  0  0  0  0  0
  -47.7706   -5.4514   77.8200 O   0  0  0  0  0  0  0  0  0  0  0  0
  -47.5255   -4.1938   78.4557 C   0  0  0  0  0  0  0  0  0  0  0  0
 18 19  1  0  0  0
 19 12  1  0  0  0
 12 13  2  0  0  0
 13 14  1  0  0  0
 14 15  2  0  0  0
 15  1  1  0  0  0
  1  2  1  0  0  0
  2  3  1  0  0  0
  3  4  2  0  0  0
  4  5  1  0  0  0
  5 20  1  0  0  0
 20 21  1  0  0  0
  5  6  2  0  0  0
  6  7  1  0  0  0
  7 22  1  0  0  0
 22 23  1  0  0  0
  7  8  2  0  0  0
  3  8  1  0  0  0
  8  9  1  0  0  0
  9 10  2  0  0  0
  9 11  1  0  0  0
  1 11  2  0  0  0
 11 24  1  0  0  0
 24 25  1  0  0  0
 15 16  1  0  0  0
 16 17  2  0  0  0
 12 17  1  0  0  0
M  END
> <minimizedAffinity>
-7.34411

$$$$
ligand_35


 25 27  0  0  0  0  0  0  0  0999 V2000
  -53.4050   -3.3482   74.0683 C   0  0  0  0  0  0  0  0  0  0  0  0
  -52.0154   -3.4005   74.0300 O   0  0  0  0  0  0  0  0  0  0  0  0
  -51.3624   -4.3921   74.7141 C   0  0  0  0  0  0  0  0  0  0  0  0
  -49.9763   -4.2599   74.8266 C   0  0  0  0  0  0  0  0  0  0  0  0
  -49.2258   -5.2158   75.5137 C   0  0  0  0  0  0  0  0  0  0  0  0
  -49.8743   -6.3148   76.0758 C   0  0  0  0  0  0  0  0  0  0  0  0
  -51.2623   -6.4603   75.9465 C   0  0  0  0  0  0  0  0  0  0  0  0
  -52.0144   -5.4847   75.2763 C   0  0  0  0  0  0  0  0  0  0  0  0
  -53.4779   -5.5299   75.1481 C   0  0  0  0  0  0  0  0  0  0  0  0
  -54.1214   -6.5463   75.3926 O   0  0  0  0  0  0  0  0  0  0  0  0
  -54.1638   -4.2971   74.6589 C   0  0  0  0  0  0  0  0  0  0  0  0
  -54.8245    0.1820   72.0205 C   0  0  0  0  0  0  0  0  0  0  0  0
  -54.1056   -0.7792   71.3155 C   0  0  0  0  0  0  0  0  0  0  0  0
  -53.6838   -1.9574   71.9455 C   0  0  0  0  0  0  0  0  0  0  0  0
  -53.9563   -2.1935   73.3006 C   0  0  0  0  0  0  0  0  0  0  0  0
  -54.7608   -1.2501   73.9674 C   0  0  0  0  0  0  0  0  0  0  0  0
  -55.1950   -0.0776   73.3358 C   0  0  0  0  0  0  0  0  0  0  0  0
  -54.0006    2.0480   70.8476 C   0  0  0  0  0  0  0  0  0  0  0  0
  -55.1287    1.3238   71.3328 O   0  0  0  0  0  0  0  0  0  0  0  0
  -47.8864   -4.9509   75.5810 O   0  0  0  0  0  0  0  0  0  0  0  0
  -47.1410   -5.0825   74.3761 C   0  0  0  0  0  0  0  0  0  0  0  0
  -51.8113   -7.5115   76.6327 O   0  0  0  0  0  0  0  0  0  0  0  0
  -51.0813   -7.8465   77.8159 C   0  0  0  0  0  0  0  0  0  0  0  0
  -55.5482   -4.2350   74.7160 O   0  0  0  0  0  0  0  0  0  0  0  0
  -56.0180   -3.9368   76.0335 C   0  0  0  0  0  0  0  0  0  0  0  0
 18 19  1  0  0  0
 19 12  1  0  0  0
 12 13  2  0  0  0
 13 14  1  0  0  0
 14 15  2  0  0  0
 15  1  1  0  0  0
  1  2  1  0  0  0
  2  3  1  0  0  0
  3  4  2  0  0  0
  4  5  1  0  0  0
  5 20  1  0  0  0
 20 21  1  0  0  0
  5  6  2  0  0  0
  6  7  1  0  0  0
  7 22  1  0  0  0
 22 23  1  0  0  0
  7  8  2  0  0  0
  3  8  1  0  0  0
  8  9  1  0  0  0
  9 10  2  0  0  0
  9 11  1  0  0  0
  1 11  2  0  0  0
 11 24  1  0  0  0
 24 25  1  0  0  0
 15 16  1  0  0  0
 16 17  2  0  0  0
 12 17  1  0  0  0
M  END
> <minimizedAffinity>
-6.94058

$$$$
ligand_35


 25 27  0  0  0  0  0  0  0  0999 V2000
  -50.9003   -4.1476   73.9607 C   0  0  0  0  0  0  0  0  0  0  0  0
  -50.2441   -3.2568   73.1172 O   0  0  0  0  0  0  0  0  0  0  0  0
  -50.8417   -2.8815   71.9426 C   0  0  0  0  0  0  0  0  0  0  0  0
  -50.0452   -2.1737   71.0392 C   0  0  0  0  0  0  0  0  0  0  0  0
  -50.5635   -1.7569   69.8117 C   0  0  0  0  0  0  0  0  0  0  0  0
  -51.8926   -2.0427   69.5019 C   0  0  0  0  0  0  0  0  0  0  0  0
  -52.6997   -2.7346   70.4153 C   0  0  0  0  0  0  0  0  0  0  0  0
  -52.1671   -3.1723   71.6366 C   0  0  0  0  0  0  0  0  0  0  0  0
  -52.9259   -3.9546   72.6227 C   0  0  0  0  0  0  0  0  0  0  0  0
  -54.1475   -4.0625   72.5668 O   0  0  0  0  0  0  0  0  0  0  0  0
  -52.1589   -4.5848   73.7380 C   0  0  0  0  0  0  0  0  0  0  0  0
  -48.3610   -4.9284   77.3685 C   0  0  0  0  0  0  0  0  0  0  0  0
  -49.5560   -4.2366   77.5458 C   0  0  0  0  0  0  0  0  0  0  0  0
  -50.4212   -4.0209   76.4652 C   0  0  0  0  0  0  0  0  0  0  0  0
  -50.1027   -4.4772   75.1781 C   0  0  0  0  0  0  0  0  0  0  0  0
  -48.9345   -5.2507   75.0420 C   0  0  0  0  0  0  0  0  0  0  0  0
  -48.0743   -5.4790   76.1238 C   0  0  0  0  0  0  0  0  0  0  0  0
  -47.3611   -3.8018   79.1761 C   0  0  0  0  0  0  0  0  0  0  0  0
  -47.5576   -5.0249   78.4706 O   0  0  0  0  0  0  0  0  0  0  0  0
  -49.6717   -1.1054   69.0061 O   0  0  0  0  0  0  0  0  0  0  0  0
  -50.1008    0.1221   68.4282 C   0  0  0  0  0  0  0  0  0  0  0  0
  -53.9512   -3.0633   69.9650 O   0  0  0  0  0  0  0  0  0  0  0  0
  -54.7975   -1.9239   69.7902 C   0  0  0  0  0  0  0  0  0  0  0  0
  -52.8059   -5.4892   74.5670 O   0  0  0  0  0  0  0  0  0  0  0  0
  -53.8931   -4.8862   75.2740 C   0  0  0  0  0  0  0  0  0  0  0  0
 18 19  1  0  0  0
 19 12  1  0  0  0
 12 13  2  0  0  0
 13 14  1  0  0  0
 14 15  2  0  0  0
 15  1  1  0  0  0
  1  2  1  0  0  0
  2  3  1  0  0  0
  3  4  2  0  0  0
  4  5  1  0  0  0
  5 20  1  0  0  0
 20 21  1  0  0  0
  5  6  2  0  0  0
  6  7  1  0  0  0
  7 22  1  0  0  0
 22 23  1  0  0  0
  7  8  2  0  0  0
  3  8  1  0  0  0
  8  9  1  0  0  0
  9 10  2  0  0  0
  9 11  1  0  0  0
  1 11  2  0  0  0
 11 24  1  0  0  0
 24 25  1  0  0  0
 15 16  1  0  0  0
 16 17  2  0  0  0
 12 17  1  0  0  0
M  END
> <minimizedAffinity>
-6.86059

$$$$
ligand_35


 25 27  0  0  0  0  0  0  0  0999 V2000
  -52.8128   -3.1730   73.3393 C   0  0  0  0  0  0  0  0  0  0  0  0
  -52.1721   -3.2908   72.1101 O   0  0  0  0  0  0  0  0  0  0  0  0
  -52.6789   -2.6275   71.0234 C   0  0  0  0  0  0  0  0  0  0  0  0
  -52.1342   -2.9629   69.7816 C   0  0  0  0  0  0  0  0  0  0  0  0
  -52.5931   -2.3470   68.6157 C   0  0  0  0  0  0  0  0  0  0  0  0
  -53.5937   -1.3801   68.7055 C   0  0  0  0  0  0  0  0  0  0  0  0
  -54.1273   -1.0269   69.9525 C   0  0  0  0  0  0  0  0  0  0  0  0
  -53.6800   -1.6663   71.1178 C   0  0  0  0  0  0  0  0  0  0  0  0
  -54.2278   -1.3991   72.4552 C   0  0  0  0  0  0  0  0  0  0  0  0
  -54.9324   -0.4207   72.6862 O   0  0  0  0  0  0  0  0  0  0  0  0
  -53.8570   -2.3427   73.5514 C   0  0  0  0  0  0  0  0  0  0  0  0
  -50.8383   -5.7219   76.2159 C   0  0  0  0  0  0  0  0  0  0  0  0
  -50.3271   -4.4534   75.9566 C   0  0  0  0  0  0  0  0  0  0  0  0
  -50.9822   -3.5891   75.0697 C   0  0  0  0  0  0  0  0  0  0  0  0
  -52.1549   -3.9805   74.4079 C   0  0  0  0  0  0  0  0  0  0  0  0
  -52.7006   -5.2310   74.7544 C   0  0  0  0  0  0  0  0  0  0  0  0
  -52.0544   -6.0917   75.6510 C   0  0  0  0  0  0  0  0  0  0  0  0
  -50.7934   -7.5991   77.6340 C   0  0  0  0  0  0  0  0  0  0  0  0
  -50.0875   -6.5109   77.0424 O   0  0  0  0  0  0  0  0  0  0  0  0
  -52.0029   -2.7896   67.4648 O   0  0  0  0  0  0  0  0  0  0  0  0
  -52.7731   -3.6505   66.6340 C   0  0  0  0  0  0  0  0  0  0  0  0
  -55.1824   -0.1535   69.9163 O   0  0  0  0  0  0  0  0  0  0  0  0
  -56.3751   -0.7421   69.3910 C   0  0  0  0  0  0  0  0  0  0  0  0
  -54.5098   -2.2404   74.7709 O   0  0  0  0  0  0  0  0  0  0  0  0
  -55.7177   -3.0057   74.7987 C   0  0  0  0  0  0  0  0  0  0  0  0
 18 19  1  0  0  0
 19 12  1  0  0  0
 12 13  2  0  0  0
 13 14  1  0  0  0
 14 15  2  0  0  0
 15  1  1  0  0  0
  1  2  1  0  0  0
  2  3  1  0  0  0
  3  4  2  0  0  0
  4  5  1  0  0  0
  5 20  1  0  0  0
 20 21  1  0  0  0
  5  6  2  0  0  0
  6  7  1  0  0  0
  7 22  1  0  0  0
 22 23  1  0  0  0
  7  8  2  0  0  0
  3  8  1  0  0  0
  8  9  1  0  0  0
  9 10  2  0  0  0
  9 11  1  0  0  0
  1 11  2  0  0  0
 11 24  1  0  0  0
 24 25  1  0  0  0
 15 16  1  0  0  0
 16 17  2  0  0  0
 12 17  1  0  0  0
M  END
> <minimizedAffinity>
-6.85898

$$$$
