ligand_17


 13 14  0  0  0  0  0  0  0  0999 V2000
  -50.9438   -9.0101   81.4705 O   0  0  0  0  0  0  0  0  0  0  0  0
  -51.7527   -8.8630   82.3765 C   0  0  0  0  0  0  0  0  0  0  0  0
  -51.4935   -7.9258   83.4826 C   0  0  0  0  0  0  0  0  0  0  0  0
  -52.4125   -7.8020   84.4437 C   0  0  0  0  0  0  0  0  0  0  0  0
  -53.6087   -8.4759   84.5098 O   0  0  0  0  0  0  0  0  0  0  0  0
  -53.8955   -9.3639   83.5000 C   0  0  0  0  0  0  0  0  0  0  0  0
  -55.1126  -10.0421   83.5768 C   0  0  0  0  0  0  0  0  0  0  0  0
  -55.4452  -10.9521   82.5764 C   0  0  0  0  0  0  0  0  0  0  0  0
  -56.6235  -11.6377   82.6039 O   0  0  0  0  0  0  0  0  0  0  0  0
  -54.5840  -11.1942   81.5085 C   0  0  0  0  0  0  0  0  0  0  0  0
  -53.3675  -10.5150   81.4315 C   0  0  0  0  0  0  0  0  0  0  0  0
  -53.0281   -9.5986   82.4309 C   0  0  0  0  0  0  0  0  0  0  0  0
  -57.1308  -11.3660   83.3866 H   0  0  0  0  0  0  0  0  0  0  0  0
  1  2  2  0  0  0
  2  3  1  0  0  0
  3  4  2  0  0  0
  4  5  1  0  0  0
  5  6  1  0  0  0
  6  7  2  0  0  0
  7  8  1  0  0  0
  8  9  1  0  0  0
  8 10  2  0  0  0
 10 11  1  0  0  0
 11 12  2  0  0  0
  2 12  1  0  0  0
  6 12  1  0  0  0
  9 13  1  0  0  0
M  END
> <minimizedAffinity>
-6.06717

$$$$
ligand_17


 13 14  0  0  0  0  0  0  0  0999 V2000
  -50.2517   -2.5988   74.1171 O   0  0  0  0  0  0  0  0  0  0  0  0
  -51.1526   -3.4091   74.2865 C   0  0  0  0  0  0  0  0  0  0  0  0
  -52.4908   -3.1894   73.7122 C   0  0  0  0  0  0  0  0  0  0  0  0
  -53.4362   -4.1082   73.9255 C   0  0  0  0  0  0  0  0  0  0  0  0
  -53.2864   -5.2704   74.6441 O   0  0  0  0  0  0  0  0  0  0  0  0
  -52.0544   -5.5196   75.2015 C   0  0  0  0  0  0  0  0  0  0  0  0
  -51.9133   -6.7023   75.9284 C   0  0  0  0  0  0  0  0  0  0  0  0
  -50.6832   -6.9961   76.5118 C   0  0  0  0  0  0  0  0  0  0  0  0
  -50.4932   -8.1400   77.2291 O   0  0  0  0  0  0  0  0  0  0  0  0
  -49.6000   -6.1298   76.3821 C   0  0  0  0  0  0  0  0  0  0  0  0
  -49.7413   -4.9477   75.6542 C   0  0  0  0  0  0  0  0  0  0  0  0
  -50.9722   -4.6475   75.0641 C   0  0  0  0  0  0  0  0  0  0  0  0
  -51.3166   -8.6557   77.2286 H   0  0  0  0  0  0  0  0  0  0  0  0
  1  2  2  0  0  0
  2  3  1  0  0  0
  3  4  2  0  0  0
  4  5  1  0  0  0
  5  6  1  0  0  0
  6  7  2  0  0  0
  7  8  1  0  0  0
  8  9  1  0  0  0
  8 10  2  0  0  0
 10 11  1  0  0  0
 11 12  2  0  0  0
  2 12  1  0  0  0
  6 12  1  0  0  0
  9 13  1  0  0  0
M  END
> <minimizedAffinity>
-5.68668

$$$$
ligand_17


 13 14  0  0  0  0  0  0  0  0999 V2000
  -49.0843   -4.3221   78.1384 O   0  0  0  0  0  0  0  0  0  0  0  0
  -49.7149   -5.3682   78.0700 C   0  0  0  0  0  0  0  0  0  0  0  0
  -50.1702   -5.8982   76.7735 C   0  0  0  0  0  0  0  0  0  0  0  0
  -50.8519   -7.0464   76.7566 C   0  0  0  0  0  0  0  0  0  0  0  0
  -51.1815   -7.8070   77.8532 O   0  0  0  0  0  0  0  0  0  0  0  0
  -50.7794   -7.3524   79.0870 C   0  0  0  0  0  0  0  0  0  0  0  0
  -51.1188   -8.1324   80.1932 C   0  0  0  0  0  0  0  0  0  0  0  0
  -50.7332   -7.7108   81.4632 C   0  0  0  0  0  0  0  0  0  0  0  0
  -51.0376   -8.4386   82.5754 O   0  0  0  0  0  0  0  0  0  0  0  0
  -50.0200   -6.5277   81.6430 C   0  0  0  0  0  0  0  0  0  0  0  0
  -49.6798   -5.7486   80.5365 C   0  0  0  0  0  0  0  0  0  0  0  0
  -50.0617   -6.1667   79.2586 C   0  0  0  0  0  0  0  0  0  0  0  0
  -51.5191   -9.2392   82.3090 H   0  0  0  0  0  0  0  0  0  0  0  0
  1  2  2  0  0  0
  2  3  1  0  0  0
  3  4  2  0  0  0
  4  5  1  0  0  0
  5  6  1  0  0  0
  6  7  2  0  0  0
  7  8  1  0  0  0
  8  9  1  0  0  0
  8 10  2  0  0  0
 10 11  1  0  0  0
 11 12  2  0  0  0
  2 12  1  0  0  0
  6 12  1  0  0  0
  9 13  1  0  0  0
M  END
> <minimizedAffinity>
-5.43080

$$$$
ligand_17


 13 14  0  0  0  0  0  0  0  0999 V2000
  -50.2806   -6.1403   76.8294 O   0  0  0  0  0  0  0  0  0  0  0  0
  -49.9453   -5.7136   77.9259 C   0  0  0  0  0  0  0  0  0  0  0  0
  -49.2281   -4.4339   78.0571 C   0  0  0  0  0  0  0  0  0  0  0  0
  -48.8891   -4.0140   79.2786 C   0  0  0  0  0  0  0  0  0  0  0  0
  -49.1475   -4.6689   80.4592 O   0  0  0  0  0  0  0  0  0  0  0  0
  -49.8140   -5.8694   80.3882 C   0  0  0  0  0  0  0  0  0  0  0  0
  -50.0715   -6.5255   81.5926 C   0  0  0  0  0  0  0  0  0  0  0  0
  -50.7436   -7.7451   81.5693 C   0  0  0  0  0  0  0  0  0  0  0  0
  -51.0219   -8.4239   82.7186 O   0  0  0  0  0  0  0  0  0  0  0  0
  -51.1572   -8.3159   80.3678 C   0  0  0  0  0  0  0  0  0  0  0  0
  -50.9004   -7.6591   79.1638 C   0  0  0  0  0  0  0  0  0  0  0  0
  -50.2284   -6.4336   79.1797 C   0  0  0  0  0  0  0  0  0  0  0  0
  -50.6944   -7.9124   83.4769 H   0  0  0  0  0  0  0  0  0  0  0  0
  1  2  2  0  0  0
  2  3  1  0  0  0
  3  4  2  0  0  0
  4  5  1  0  0  0
  5  6  1  0  0  0
  6  7  2  0  0  0
  7  8  1  0  0  0
  8  9  1  0  0  0
  8 10  2  0  0  0
 10 11  1  0  0  0
 11 12  2  0  0  0
  2 12  1  0  0  0
  6 12  1  0  0  0
  9 13  1  0  0  0
M  END
> <minimizedAffinity>
-5.42966

$$$$
ligand_17


 13 14  0  0  0  0  0  0  0  0999 V2000
  -51.7587   -7.6225   76.6923 O   0  0  0  0  0  0  0  0  0  0  0  0
  -50.9883   -6.7652   76.2822 C   0  0  0  0  0  0  0  0  0  0  0  0
  -49.5402   -6.8617   76.5325 C   0  0  0  0  0  0  0  0  0  0  0  0
  -48.7444   -5.8995   76.0588 C   0  0  0  0  0  0  0  0  0  0  0  0
  -49.1468   -4.7982   75.3413 O   0  0  0  0  0  0  0  0  0  0  0  0
  -50.4905   -4.6630   75.0832 C   0  0  0  0  0  0  0  0  0  0  0  0
  -50.8878   -3.5418   74.3536 C   0  0  0  0  0  0  0  0  0  0  0  0
  -52.2393   -3.3629   74.0690 C   0  0  0  0  0  0  0  0  0  0  0  0
  -52.6781   -2.2859   73.3572 O   0  0  0  0  0  0  0  0  0  0  0  0
  -53.1935   -4.2808   74.5020 C   0  0  0  0  0  0  0  0  0  0  0  0
  -52.7957   -5.4024   75.2307 C   0  0  0  0  0  0  0  0  0  0  0  0
  -51.4407   -5.5896   75.5180 C   0  0  0  0  0  0  0  0  0  0  0  0
  -51.9155   -1.7385   73.1070 H   0  0  0  0  0  0  0  0  0  0  0  0
  1  2  2  0  0  0
  2  3  1  0  0  0
  3  4  2  0  0  0
  4  5  1  0  0  0
  5  6  1  0  0  0
  6  7  2  0  0  0
  7  8  1  0  0  0
  8  9  1  0  0  0
  8 10  2  0  0  0
 10 11  1  0  0  0
 11 12  2  0  0  0
  2 12  1  0  0  0
  6 12  1  0  0  0
  9 13  1  0  0  0
M  END
> <minimizedAffinity>
-5.42161

$$$$
