ligand_24


 27 30  0  0  0  0  0  0  0  0999 V2000
  -52.6341   -1.4941   71.4761 C   0  0  0  0  0  0  0  0  0  0  0  0
  -52.3906   -2.9854   71.1535 C   0  0  0  0  0  0  0  0  0  0  0  0
  -53.1415   -3.8980   72.1414 C   0  0  0  0  0  0  0  0  0  0  0  0
  -52.5348   -3.8844   73.5614 C   0  0  0  0  0  0  0  0  0  0  0  0
  -52.7911   -2.6257   74.1682 O   0  0  0  0  0  0  0  0  0  0  0  0
  -51.0290   -4.2673   73.5405 C   0  0  0  0  0  0  0  0  0  0  0  0
  -50.2130   -3.3445   72.5923 C   0  0  0  0  0  0  0  0  0  0  0  0
  -48.7866   -3.8923   72.4355 C   0  0  0  0  0  0  0  0  0  0  0  0
  -48.0810   -4.1439   73.7500 C   0  0  0  0  0  0  0  0  0  0  0  0
  -48.8806   -4.8530   74.8150 C   0  0  0  0  0  0  0  0  0  0  0  0
  -48.1692   -5.3320   75.8534 C   0  0  0  0  0  0  0  0  0  0  0  0
  -48.7856   -5.1851   77.1936 C   0  0  0  0  0  0  0  0  0  0  0  0
  -48.3996   -5.8899   78.1228 O   0  0  0  0  0  0  0  0  0  0  0  0
  -49.8052   -4.0598   77.3768 C   0  0  0  0  0  0  0  0  0  0  0  0
  -50.4365   -3.5303   76.0598 C   0  0  0  0  0  0  0  0  0  0  0  0
  -50.3885   -4.5961   74.9434 C   0  0  0  0  0  0  0  0  0  0  0  0
  -51.1790   -5.8521   75.4582 C   0  0  0  0  0  0  0  0  0  0  0  0
  -50.8902   -3.3767   71.2037 C   0  0  0  0  0  0  0  0  0  0  0  0
  -50.2900   -2.5909   70.0445 C   0  0  0  0  0  0  0  0  0  0  0  0
  -51.3652   -2.7302   68.9513 C   0  0  0  0  0  0  0  0  0  0  0  0
  -52.6386   -3.2922   69.6486 C   0  0  0  0  0  0  0  0  0  0  0  0
  -51.9537   -2.1815   74.3745 H   0  0  0  0  0  0  0  0  0  0  0  0
  -53.8911   -2.8589   68.8949 C   0  0  0  0  0  0  0  0  0  0  0  0
  -54.9807   -2.8074   69.4829 O   0  0  0  0  0  0  0  0  0  0  0  0
  -53.8217   -2.4282   67.4416 C   0  0  0  0  0  0  0  0  0  0  0  0
  -53.9453   -3.5517   66.5756 O   0  0  0  0  0  0  0  0  0  0  0  0
  -53.6619   -4.3297   67.0988 H   0  0  0  0  0  0  0  0  0  0  0  0
  1  2  1  0  0  0
  2  3  1  0  0  0
  3  4  1  0  0  0
  4  6  1  0  0  0
  6  7  1  0  0  0
  7  8  1  0  0  0
  8  9  1  0  0  0
  9 10  1  0  0  0
 10 11  2  0  0  0
 11 12  1  0  0  0
 12 13  2  0  0  0
 12 14  1  0  0  0
 14 15  1  0  0  0
 15 16  1  0  0  0
 10 16  1  0  0  0
  6 16  1  0  0  0
 16 17  1  0  0  0
  7 18  1  0  0  0
  2 18  1  0  0  0
 18 19  1  0  0  0
 19 20  1  0  0  0
 20 21  1  0  0  0
  2 21  1  0  0  0
 23 24  2  0  0  0
 23 25  1  0  0  0
 25 26  1  0  0  0
  4  5  1  0  0  0
 21 23  1  0  0  0
  5 22  1  0  0  0
 26 27  1  0  0  0
M  END
> <minimizedAffinity>
-8.00815

$$$$
ligand_24


 27 30  0  0  0  0  0  0  0  0999 V2000
  -50.6229   -3.4408   76.0195 C   0  0  0  0  0  0  0  0  0  0  0  0
  -50.4889   -4.5586   74.9612 C   0  0  0  0  0  0  0  0  0  0  0  0
  -49.2395   -4.3483   74.0853 C   0  0  0  0  0  0  0  0  0  0  0  0
  -49.3710   -3.1521   73.1176 C   0  0  0  0  0  0  0  0  0  0  0  0
  -49.3386   -1.9422   73.8613 O   0  0  0  0  0  0  0  0  0  0  0  0
  -50.6254   -3.2890   72.2109 C   0  0  0  0  0  0  0  0  0  0  0  0
  -51.9252   -3.4567   73.0471 C   0  0  0  0  0  0  0  0  0  0  0  0
  -53.0982   -3.8055   72.1189 C   0  0  0  0  0  0  0  0  0  0  0  0
  -53.2706   -2.8431   70.9643 C   0  0  0  0  0  0  0  0  0  0  0  0
  -52.0156   -2.4547   70.2223 C   0  0  0  0  0  0  0  0  0  0  0  0
  -52.2066   -1.8480   69.0352 C   0  0  0  0  0  0  0  0  0  0  0  0
  -51.2943   -0.7230   68.7196 C   0  0  0  0  0  0  0  0  0  0  0  0
  -51.1548   -0.3594   67.5546 O   0  0  0  0  0  0  0  0  0  0  0  0
  -50.6562    0.0139   69.8984 C   0  0  0  0  0  0  0  0  0  0  0  0
  -50.6358   -0.7825   71.2321 C   0  0  0  0  0  0  0  0  0  0  0  0
  -50.6892   -2.3051   70.9804 C   0  0  0  0  0  0  0  0  0  0  0  0
  -49.4409   -2.6807   70.1041 C   0  0  0  0  0  0  0  0  0  0  0  0
  -51.7148   -4.6433   74.0143 C   0  0  0  0  0  0  0  0  0  0  0  0
  -52.8403   -5.0766   74.9453 C   0  0  0  0  0  0  0  0  0  0  0  0
  -52.1494   -6.1153   75.8477 C   0  0  0  0  0  0  0  0  0  0  0  0
  -50.6190   -5.9703   75.6019 C   0  0  0  0  0  0  0  0  0  0  0  0
  -50.1699   -1.4572   73.7399 H   0  0  0  0  0  0  0  0  0  0  0  0
  -49.8394   -6.4114   76.8358 C   0  0  0  0  0  0  0  0  0  0  0  0
  -50.4369   -6.9111   77.7996 O   0  0  0  0  0  0  0  0  0  0  0  0
  -48.3266   -6.3057   76.8863 C   0  0  0  0  0  0  0  0  0  0  0  0
  -47.9249   -5.1724   77.6491 O   0  0  0  0  0  0  0  0  0  0  0  0
  -48.6788   -4.5477   77.6238 H   0  0  0  0  0  0  0  0  0  0  0  0
  1  2  1  0  0  0
  2  3  1  0  0  0
  3  4  1  0  0  0
  4  6  1  0  0  0
  6  7  1  0  0  0
  7  8  1  0  0  0
  8  9  1  0  0  0
  9 10  1  0  0  0
 10 11  2  0  0  0
 11 12  1  0  0  0
 12 13  2  0  0  0
 12 14  1  0  0  0
 14 15  1  0  0  0
 15 16  1  0  0  0
 10 16  1  0  0  0
  6 16  1  0  0  0
 16 17  1  0  0  0
  7 18  1  0  0  0
  2 18  1  0  0  0
 18 19  1  0  0  0
 19 20  1  0  0  0
 20 21  1  0  0  0
  2 21  1  0  0  0
 23 24  2  0  0  0
 23 25  1  0  0  0
 25 26  1  0  0  0
  4  5  1  0  0  0
 21 23  1  0  0  0
  5 22  1  0  0  0
 26 27  1  0  0  0
M  END
> <minimizedAffinity>
-7.70187

$$$$
ligand_24


 27 30  0  0  0  0  0  0  0  0999 V2000
  -50.7136   -6.3217   75.5912 C   0  0  0  0  0  0  0  0  0  0  0  0
  -50.2823   -4.8562   75.8230 C   0  0  0  0  0  0  0  0  0  0  0  0
  -51.4950   -3.9071   75.7861 C   0  0  0  0  0  0  0  0  0  0  0  0
  -52.0878   -3.7345   74.3707 C   0  0  0  0  0  0  0  0  0  0  0  0
  -52.7266   -4.9417   73.9799 O   0  0  0  0  0  0  0  0  0  0  0  0
  -51.0137   -3.2462   73.3596 C   0  0  0  0  0  0  0  0  0  0  0  0
  -49.7841   -4.1966   73.3214 C   0  0  0  0  0  0  0  0  0  0  0  0
  -48.6648   -3.5640   72.4811 C   0  0  0  0  0  0  0  0  0  0  0  0
  -49.1076   -3.1315   71.1005 C   0  0  0  0  0  0  0  0  0  0  0  0
  -50.4136   -2.3802   71.0201 C   0  0  0  0  0  0  0  0  0  0  0  0
  -50.6502   -1.7491   69.8542 C   0  0  0  0  0  0  0  0  0  0  0  0
  -52.0425   -1.8063   69.3485 C   0  0  0  0  0  0  0  0  0  0  0  0
  -52.4235   -0.9860   68.5174 O   0  0  0  0  0  0  0  0  0  0  0  0
  -52.9085   -2.9795   69.8105 C   0  0  0  0  0  0  0  0  0  0  0  0
  -52.4176   -3.6826   71.1059 C   0  0  0  0  0  0  0  0  0  0  0  0
  -51.5635   -2.7329   71.9738 C   0  0  0  0  0  0  0  0  0  0  0  0
  -52.4584   -1.4932   72.3341 C   0  0  0  0  0  0  0  0  0  0  0  0
  -49.2627   -4.3529   74.7676 C   0  0  0  0  0  0  0  0  0  0  0  0
  -48.0301   -5.2042   75.0458 C   0  0  0  0  0  0  0  0  0  0  0  0
  -47.9957   -5.2539   76.5842 C   0  0  0  0  0  0  0  0  0  0  0  0
  -49.3724   -4.7201   77.0775 C   0  0  0  0  0  0  0  0  0  0  0  0
  -52.2985   -5.3005   73.1867 H   0  0  0  0  0  0  0  0  0  0  0  0
  -49.7165   -5.3172   78.4376 C   0  0  0  0  0  0  0  0  0  0  0  0
  -50.1976   -6.4569   78.5095 O   0  0  0  0  0  0  0  0  0  0  0  0
  -49.4250   -4.5625   79.7213 C   0  0  0  0  0  0  0  0  0  0  0  0
  -49.5017   -3.1566   79.5090 O   0  0  0  0  0  0  0  0  0  0  0  0
  -49.3409   -3.0177   78.5529 H   0  0  0  0  0  0  0  0  0  0  0  0
  1  2  1  0  0  0
  2  3  1  0  0  0
  3  4  1  0  0  0
  4  6  1  0  0  0
  6  7  1  0  0  0
  7  8  1  0  0  0
  8  9  1  0  0  0
  9 10  1  0  0  0
 10 11  2  0  0  0
 11 12  1  0  0  0
 12 13  2  0  0  0
 12 14  1  0  0  0
 14 15  1  0  0  0
 15 16  1  0  0  0
 10 16  1  0  0  0
  6 16  1  0  0  0
 16 17  1  0  0  0
  7 18  1  0  0  0
  2 18  1  0  0  0
 18 19  1  0  0  0
 19 20  1  0  0  0
 20 21  1  0  0  0
  2 21  1  0  0  0
 23 24  2  0  0  0
 23 25  1  0  0  0
 25 26  1  0  0  0
  4  5  1  0  0  0
 21 23  1  0  0  0
  5 22  1  0  0  0
 26 27  1  0  0  0
M  END
> <minimizedAffinity>
-7.40460

$$$$
ligand_24


 27 30  0  0  0  0  0  0  0  0999 V2000
  -49.3529   -2.1201   73.3510 C   0  0  0  0  0  0  0  0  0  0  0  0
  -49.9479   -3.4850   72.9385 C   0  0  0  0  0  0  0  0  0  0  0  0
  -49.6073   -3.8206   71.4743 C   0  0  0  0  0  0  0  0  0  0  0  0
  -50.3662   -2.9403   70.4576 C   0  0  0  0  0  0  0  0  0  0  0  0
  -49.8589   -1.6146   70.5153 O   0  0  0  0  0  0  0  0  0  0  0  0
  -51.9035   -3.0253   70.6671 C   0  0  0  0  0  0  0  0  0  0  0  0
  -52.3086   -2.6493   72.1201 C   0  0  0  0  0  0  0  0  0  0  0  0
  -53.7972   -2.9570   72.3402 C   0  0  0  0  0  0  0  0  0  0  0  0
  -54.7088   -2.3366   71.3041 C   0  0  0  0  0  0  0  0  0  0  0  0
  -54.2766   -2.4704   69.8648 C   0  0  0  0  0  0  0  0  0  0  0  0
  -55.2195   -2.1866   68.9461 C   0  0  0  0  0  0  0  0  0  0  0  0
  -54.7654   -1.4362   67.7509 C   0  0  0  0  0  0  0  0  0  0  0  0
  -55.4451   -1.4499   66.7278 O   0  0  0  0  0  0  0  0  0  0  0  0
  -53.5114   -0.5731   67.8996 C   0  0  0  0  0  0  0  0  0  0  0  0
  -52.5950   -0.9539   69.0949 C   0  0  0  0  0  0  0  0  0  0  0  0
  -52.7853   -2.4311   69.5028 C   0  0  0  0  0  0  0  0  0  0  0  0
  -52.4389   -3.3131   68.2501 C   0  0  0  0  0  0  0  0  0  0  0  0
  -51.4915   -3.5392   73.0836 C   0  0  0  0  0  0  0  0  0  0  0  0
  -51.7006   -3.4254   74.5885 C   0  0  0  0  0  0  0  0  0  0  0  0
  -50.5713   -4.3069   75.1526 C   0  0  0  0  0  0  0  0  0  0  0  0
  -49.5996   -4.5955   73.9710 C   0  0  0  0  0  0  0  0  0  0  0  0
  -50.5638   -1.0020   70.7780 H   0  0  0  0  0  0  0  0  0  0  0  0
  -48.1898   -4.8491   74.4933 C   0  0  0  0  0  0  0  0  0  0  0  0
  -48.0050   -5.0558   75.7011 O   0  0  0  0  0  0  0  0  0  0  0  0
  -47.0039   -4.9133   73.5490 C   0  0  0  0  0  0  0  0  0  0  0  0
  -45.8859   -4.2205   74.0946 O   0  0  0  0  0  0  0  0  0  0  0  0
  -46.2530   -3.5704   74.7286 H   0  0  0  0  0  0  0  0  0  0  0  0
  1  2  1  0  0  0
  2  3  1  0  0  0
  3  4  1  0  0  0
  4  6  1  0  0  0
  6  7  1  0  0  0
  7  8  1  0  0  0
  8  9  1  0  0  0
  9 10  1  0  0  0
 10 11  2  0  0  0
 11 12  1  0  0  0
 12 13  2  0  0  0
 12 14  1  0  0  0
 14 15  1  0  0  0
 15 16  1  0  0  0
 10 16  1  0  0  0
  6 16  1  0  0  0
 16 17  1  0  0  0
  7 18  1  0  0  0
  2 18  1  0  0  0
 18 19  1  0  0  0
 19 20  1  0  0  0
 20 21  1  0  0  0
  2 21  1  0  0  0
 23 24  2  0  0  0
 23 25  1  0  0  0
 25 26  1  0  0  0
  4  5  1  0  0  0
 21 23  1  0  0  0
  5 22  1  0  0  0
 26 27  1  0  0  0
M  END
> <minimizedAffinity>
-7.30937

$$$$
ligand_24


 27 30  0  0  0  0  0  0  0  0999 V2000
  -55.5346    5.5752   71.9981 C   0  0  0  0  0  0  0  0  0  0  0  0
  -54.6150    4.7357   72.9129 C   0  0  0  0  0  0  0  0  0  0  0  0
  -53.2511    4.4783   72.2451 C   0  0  0  0  0  0  0  0  0  0  0  0
  -53.3322    3.4919   71.0598 C   0  0  0  0  0  0  0  0  0  0  0  0
  -54.0065    4.1159   69.9762 O   0  0  0  0  0  0  0  0  0  0  0  0
  -53.9658    2.1391   71.4877 C   0  0  0  0  0  0  0  0  0  0  0  0
  -55.3690    2.3368   72.1268 C   0  0  0  0  0  0  0  0  0  0  0  0
  -55.8570    1.0104   72.7283 C   0  0  0  0  0  0  0  0  0  0  0  0
  -55.8188   -0.1505   71.7588 C   0  0  0  0  0  0  0  0  0  0  0  0
  -54.5639   -0.2937   70.9336 C   0  0  0  0  0  0  0  0  0  0  0  0
  -54.4142   -1.4745   70.3035 C   0  0  0  0  0  0  0  0  0  0  0  0
  -53.8656   -1.4184   68.9275 C   0  0  0  0  0  0  0  0  0  0  0  0
  -53.3679   -2.4243   68.4280 O   0  0  0  0  0  0  0  0  0  0  0  0
  -54.0609   -0.1173   68.1474 C   0  0  0  0  0  0  0  0  0  0  0  0
  -54.3570    1.1309   69.0237 C   0  0  0  0  0  0  0  0  0  0  0  0
  -53.8101    0.9558   70.4572 C   0  0  0  0  0  0  0  0  0  0  0  0
  -52.2603    0.7265   70.3442 C   0  0  0  0  0  0  0  0  0  0  0  0
  -55.2240    3.3565   73.2788 C   0  0  0  0  0  0  0  0  0  0  0  0
  -56.4353    3.7281   74.1250 C   0  0  0  0  0  0  0  0  0  0  0  0
  -55.9027    4.8904   74.9827 C   0  0  0  0  0  0  0  0  0  0  0  0
  -54.5479    5.3252   74.3511 C   0  0  0  0  0  0  0  0  0  0  0  0
  -54.8136    3.6227   69.7611 H   0  0  0  0  0  0  0  0  0  0  0  0
  -54.2715    6.7949   74.6479 C   0  0  0  0  0  0  0  0  0  0  0  0
  -54.3891    7.6406   73.7499 O   0  0  0  0  0  0  0  0  0  0  0  0
  -53.9095    7.2573   76.0470 C   0  0  0  0  0  0  0  0  0  0  0  0
  -52.8821    8.2422   76.0033 O   0  0  0  0  0  0  0  0  0  0  0  0
  -52.4075    8.1015   75.1582 H   0  0  0  0  0  0  0  0  0  0  0  0
  1  2  1  0  0  0
  2  3  1  0  0  0
  3  4  1  0  0  0
  4  6  1  0  0  0
  6  7  1  0  0  0
  7  8  1  0  0  0
  8  9  1  0  0  0
  9 10  1  0  0  0
 10 11  2  0  0  0
 11 12  1  0  0  0
 12 13  2  0  0  0
 12 14  1  0  0  0
 14 15  1  0  0  0
 15 16  1  0  0  0
 10 16  1  0  0  0
  6 16  1  0  0  0
 16 17  1  0  0  0
  7 18  1  0  0  0
  2 18  1  0  0  0
 18 19  1  0  0  0
 19 20  1  0  0  0
 20 21  1  0  0  0
  2 21  1  0  0  0
 23 24  2  0  0  0
 23 25  1  0  0  0
 25 26  1  0  0  0
  4  5  1  0  0  0
 21 23  1  0  0  0
  5 22  1  0  0  0
 26 27  1  0  0  0
M  END
> <minimizedAffinity>
-7.25369

$$$$
