ligand_4


 45 48  0  0  0  0  0  0  0  0999 V2000
  -51.0254   -1.7551   69.0514 C   0  0  0  0  0  0  0  0  0  0  0  0
  -50.6524   -2.8250   69.9526 O   0  0  0  0  0  0  0  0  0  0  0  0
  -51.2013   -2.7778   71.3080 C   0  0  0  0  0  0  0  0  0  0  0  0
  -52.6916   -2.9344   70.8058 C   0  0  0  0  0  0  0  0  0  0  0  0
  -53.3011   -2.2973   69.5527 C   0  0  0  0  0  0  0  0  0  0  0  0
  -54.4749   -3.0842   69.2450 O   0  0  0  0  0  0  0  0  0  0  0  0
  -55.6474   -2.4846   69.5504 C   0  0  0  0  0  0  0  0  0  0  0  0
  -56.0762   -1.5208   68.9305 O   0  0  0  0  0  0  0  0  0  0  0  0
  -56.3687   -3.1436   70.7046 C   0  0  0  0  0  0  0  0  0  0  0  0
  -55.9708   -2.7077   72.1286 C   0  0  0  0  0  0  0  0  0  0  0  0
  -54.8837   -3.6159   72.5253 O   0  0  0  0  0  0  0  0  0  0  0  0
  -54.5724   -3.8028   73.8315 C   0  0  0  0  0  0  0  0  0  0  0  0
  -55.2600   -3.4598   74.7772 O   0  0  0  0  0  0  0  0  0  0  0  0
  -53.2168   -4.4672   74.0118 C   0  0  0  0  0  0  0  0  0  0  0  0
  -52.0253   -3.6088   73.5374 C   0  0  0  0  0  0  0  0  0  0  0  0
  -52.2706   -2.2124   73.7220 O   0  0  0  0  0  0  0  0  0  0  0  0
  -51.7283   -3.9661   72.1586 O   0  0  0  0  0  0  0  0  0  0  0  0
  -50.7025   -3.9637   74.2163 C   0  0  0  0  0  0  0  0  0  0  0  0
  -50.6268   -3.7185   75.7206 C   0  0  0  0  0  0  0  0  0  0  0  0
  -49.6358   -3.1401   73.4868 C   0  0  0  0  0  0  0  0  0  0  0  0
  -49.7446   -3.2143   71.9248 C   0  0  0  0  0  0  0  0  0  0  0  0
  -49.3137   -4.6571   71.4593 C   0  0  0  0  0  0  0  0  0  0  0  0
  -48.5973   -2.2695   71.4363 C   0  0  0  0  0  0  0  0  0  0  0  0
  -52.3123   -2.2824   68.4129 C   0  0  0  0  0  0  0  0  0  0  0  0
  -52.0975   -3.6731   67.7837 C   0  0  0  0  0  0  0  0  0  0  0  0
  -52.9381   -2.0950   74.4227 H   0  0  0  0  0  0  0  0  0  0  0  0
  -55.5407   -1.2183   72.3541 C   0  0  0  0  0  0  0  0  0  0  0  0
  -56.6311   -0.1556   72.3679 C   0  0  0  0  0  0  0  0  0  0  0  0
  -54.8442   -1.1234   73.6029 O   0  0  0  0  0  0  0  0  0  0  0  0
  -54.3958   -0.2605   73.6330 H   0  0  0  0  0  0  0  0  0  0  0  0
  -51.0061   -0.2532   69.5909 C   0  0  0  0  0  0  0  0  0  0  0  0
  -50.7071    0.0446   71.0743 C   0  0  0  0  0  0  0  0  0  0  0  0
  -52.3000    0.5457   69.2435 C   0  0  0  0  0  0  0  0  0  0  0  0
  -53.1063    0.9642   70.4700 C   0  0  0  0  0  0  0  0  0  0  0  0
  -54.2593    1.9361   70.1342 C   0  0  0  0  0  0  0  0  0  0  0  0
  -54.1286    3.1582   71.0307 C   0  0  0  0  0  0  0  0  0  0  0  0
  -54.9160    3.2975   72.1852 C   0  0  0  0  0  0  0  0  0  0  0  0
  -54.8622    4.4642   72.9498 C   0  0  0  0  0  0  0  0  0  0  0  0
  -54.0223    5.5100   72.5708 C   0  0  0  0  0  0  0  0  0  0  0  0
  -53.2341    5.3733   71.4330 C   0  0  0  0  0  0  0  0  0  0  0  0
  -52.4058    6.3755   71.0200 O   0  0  0  0  0  0  0  0  0  0  0  0
  -53.2771    4.2126   70.6663 C   0  0  0  0  0  0  0  0  0  0  0  0
  -52.4911    7.1179   71.6403 H   0  0  0  0  0  0  0  0  0  0  0  0
  -55.4136    2.1853   68.0338 C   0  0  0  0  0  0  0  0  0  0  0  0
  -54.2129    2.3719   68.7711 O   0  0  0  0  0  0  0  0  0  0  0  0
 44 45  1  0  0  0
 45 35  1  0  0  0
 35 34  1  0  0  0
 34 33  1  0  0  0
  1  2  1  0  0  0
  2  3  1  0  0  0
  3  4  1  0  0  0
  4  5  1  0  0  0
  5  6  1  0  0  0
  6  7  1  0  0  0
  7  8  2  0  0  0
  7  9  1  0  0  0
  9 10  1  0  0  0
 10 27  1  0  0  0
 27 28  1  0  0  0
 27 29  1  0  0  0
 10 11  1  0  0  0
 11 12  1  0  0  0
 12 13  2  0  0  0
 12 14  1  0  0  0
 14 15  1  0  0  0
 15 16  1  0  0  0
 15 17  1  0  0  0
  3 17  1  0  0  0
 15 18  1  0  0  0
 18 19  1  0  0  0
 18 20  1  0  0  0
 20 21  1  0  0  0
  3 21  1  0  0  0
 21 22  1  0  0  0
 21 23  1  0  0  0
  5 24  1  0  0  0
  1 24  1  0  0  0
 24 25  1  0  0  0
 35 36  1  0  0  0
 36 37  2  0  0  0
 37 38  1  0  0  0
 38 39  2  0  0  0
 39 40  1  0  0  0
 40 41  1  0  0  0
 40 42  2  0  0  0
 36 42  1  0  0  0
  1 31  1  0  0  0
 31 32  1  0  0  0
 31 33  1  0  0  0
 29 30  1  0  0  0
 16 26  1  0  0  0
 41 43  1  0  0  0
M  END
> <minimizedAffinity>
-8.84624

$$$$
ligand_4


 45 48  0  0  0  0  0  0  0  0999 V2000
  -55.6479   -0.3612   71.5624 C   0  0  0  0  0  0  0  0  0  0  0  0
  -54.9544   -0.5393   70.3040 O   0  0  0  0  0  0  0  0  0  0  0  0
  -53.4963   -0.6470   70.3550 C   0  0  0  0  0  0  0  0  0  0  0  0
  -53.5354   -1.9874   71.1914 C   0  0  0  0  0  0  0  0  0  0  0  0
  -54.5146   -2.3275   72.3197 C   0  0  0  0  0  0  0  0  0  0  0  0
  -54.4948   -3.7690   72.4340 O   0  0  0  0  0  0  0  0  0  0  0  0
  -53.8223   -4.2368   73.5095 C   0  0  0  0  0  0  0  0  0  0  0  0
  -54.2362   -4.1071   74.6535 O   0  0  0  0  0  0  0  0  0  0  0  0
  -52.5392   -4.9487   73.1442 C   0  0  0  0  0  0  0  0  0  0  0  0
  -51.2802   -4.0810   72.9479 C   0  0  0  0  0  0  0  0  0  0  0  0
  -51.2736   -3.7199   71.5219 O   0  0  0  0  0  0  0  0  0  0  0  0
  -50.1320   -3.3226   70.9081 C   0  0  0  0  0  0  0  0  0  0  0  0
  -49.0077   -3.4419   71.3626 O   0  0  0  0  0  0  0  0  0  0  0  0
  -50.3999   -2.6527   69.5698 C   0  0  0  0  0  0  0  0  0  0  0  0
  -51.1665   -1.3176   69.6747 C   0  0  0  0  0  0  0  0  0  0  0  0
  -50.8477   -0.6158   70.8789 O   0  0  0  0  0  0  0  0  0  0  0  0
  -52.5870   -1.5963   69.5272 O   0  0  0  0  0  0  0  0  0  0  0  0
  -50.9343   -0.3800   68.4900 C   0  0  0  0  0  0  0  0  0  0  0  0
  -49.5118    0.1418   68.3086 C   0  0  0  0  0  0  0  0  0  0  0  0
  -51.9083    0.7852   68.6948 C   0  0  0  0  0  0  0  0  0  0  0  0
  -53.3673    0.3303   69.0430 C   0  0  0  0  0  0  0  0  0  0  0  0
  -54.0118   -0.3165   67.7583 C   0  0  0  0  0  0  0  0  0  0  0  0
  -54.1299    1.6813   69.2447 C   0  0  0  0  0  0  0  0  0  0  0  0
  -55.8963   -1.8002   72.0196 C   0  0  0  0  0  0  0  0  0  0  0  0
  -56.6294   -2.6148   70.9356 C   0  0  0  0  0  0  0  0  0  0  0  0
  -49.9740   -0.9084   71.1976 H   0  0  0  0  0  0  0  0  0  0  0  0
  -51.1203   -2.7975   73.8317 C   0  0  0  0  0  0  0  0  0  0  0  0
  -50.8109   -2.9844   75.3108 C   0  0  0  0  0  0  0  0  0  0  0  0
  -50.0749   -1.9863   73.2818 O   0  0  0  0  0  0  0  0  0  0  0  0
  -50.1280   -1.1064   73.6937 H   0  0  0  0  0  0  0  0  0  0  0  0
  -55.0650    0.6815   72.6209 C   0  0  0  0  0  0  0  0  0  0  0  0
  -55.0248    0.3358   74.1234 C   0  0  0  0  0  0  0  0  0  0  0  0
  -55.7177    2.0946   72.5213 C   0  0  0  0  0  0  0  0  0  0  0  0
  -55.2735    3.0509   73.6249 C   0  0  0  0  0  0  0  0  0  0  0  0
  -54.6026    4.3323   73.0822 C   0  0  0  0  0  0  0  0  0  0  0  0
  -54.4665    5.3215   74.2300 C   0  0  0  0  0  0  0  0  0  0  0  0
  -54.8425    4.9712   75.5370 C   0  0  0  0  0  0  0  0  0  0  0  0
  -54.8075    5.9130   76.5668 C   0  0  0  0  0  0  0  0  0  0  0  0
  -54.3984    7.2195   76.3053 C   0  0  0  0  0  0  0  0  0  0  0  0
  -54.0168    7.5690   75.0142 C   0  0  0  0  0  0  0  0  0  0  0  0
  -53.6195    8.8386   74.7117 O   0  0  0  0  0  0  0  0  0  0  0  0
  -54.0439    6.6365   73.9815 C   0  0  0  0  0  0  0  0  0  0  0  0
  -53.6632    9.3737   75.5210 H   0  0  0  0  0  0  0  0  0  0  0  0
  -53.0758    4.5278   71.2284 C   0  0  0  0  0  0  0  0  0  0  0  0
  -53.2966    4.0718   72.5564 O   0  0  0  0  0  0  0  0  0  0  0  0
 44 45  1  0  0  0
 45 35  1  0  0  0
 35 34  1  0  0  0
 34 33  1  0  0  0
  1  2  1  0  0  0
  2  3  1  0  0  0
  3  4  1  0  0  0
  4  5  1  0  0  0
  5  6  1  0  0  0
  6  7  1  0  0  0
  7  8  2  0  0  0
  7  9  1  0  0  0
  9 10  1  0  0  0
 10 27  1  0  0  0
 27 28  1  0  0  0
 27 29  1  0  0  0
 10 11  1  0  0  0
 11 12  1  0  0  0
 12 13  2  0  0  0
 12 14  1  0  0  0
 14 15  1  0  0  0
 15 16  1  0  0  0
 15 17  1  0  0  0
  3 17  1  0  0  0
 15 18  1  0  0  0
 18 19  1  0  0  0
 18 20  1  0  0  0
 20 21  1  0  0  0
  3 21  1  0  0  0
 21 22  1  0  0  0
 21 23  1  0  0  0
  5 24  1  0  0  0
  1 24  1  0  0  0
 24 25  1  0  0  0
 35 36  1  0  0  0
 36 37  2  0  0  0
 37 38  1  0  0  0
 38 39  2  0  0  0
 39 40  1  0  0  0
 40 41  1  0  0  0
 40 42  2  0  0  0
 36 42  1  0  0  0
  1 31  1  0  0  0
 31 32  1  0  0  0
 31 33  1  0  0  0
 29 30  1  0  0  0
 16 26  1  0  0  0
 41 43  1  0  0  0
M  END
> <minimizedAffinity>
-8.37204

$$$$
ligand_4


 45 48  0  0  0  0  0  0  0  0999 V2000
  -54.5158   -2.2758   73.0177 C   0  0  0  0  0  0  0  0  0  0  0  0
  -55.2677   -1.0489   72.8576 O   0  0  0  0  0  0  0  0  0  0  0  0
  -54.7352   -0.0569   71.9234 C   0  0  0  0  0  0  0  0  0  0  0  0
  -54.9064   -1.0101   70.6745 C   0  0  0  0  0  0  0  0  0  0  0  0
  -54.6537   -2.5209   70.6418 C   0  0  0  0  0  0  0  0  0  0  0  0
  -55.3853   -3.0154   69.4964 O   0  0  0  0  0  0  0  0  0  0  0  0
  -54.6132   -3.3358   68.4339 C   0  0  0  0  0  0  0  0  0  0  0  0
  -53.8653   -4.3042   68.4305 O   0  0  0  0  0  0  0  0  0  0  0  0
  -54.7949   -2.3966   67.2628 C   0  0  0  0  0  0  0  0  0  0  0  0
  -53.9620   -1.0995   67.2607 C   0  0  0  0  0  0  0  0  0  0  0  0
  -54.7905   -0.1026   67.9562 O   0  0  0  0  0  0  0  0  0  0  0  0
  -54.5743    1.2249   67.7865 C   0  0  0  0  0  0  0  0  0  0  0  0
  -53.8824    1.7219   66.9152 O   0  0  0  0  0  0  0  0  0  0  0  0
  -55.2678    2.0625   68.8491 C   0  0  0  0  0  0  0  0  0  0  0  0
  -54.7228    1.8480   70.2768 C   0  0  0  0  0  0  0  0  0  0  0  0
  -53.3250    1.5471   70.2715 O   0  0  0  0  0  0  0  0  0  0  0  0
  -55.5314    0.8256   70.9231 O   0  0  0  0  0  0  0  0  0  0  0  0
  -54.9609    3.0342   71.2110 C   0  0  0  0  0  0  0  0  0  0  0  0
  -54.2519    4.3355   70.8466 C   0  0  0  0  0  0  0  0  0  0  0  0
  -54.5193    2.5560   72.5983 C   0  0  0  0  0  0  0  0  0  0  0  0
  -55.0827    1.1454   72.9851 C   0  0  0  0  0  0  0  0  0  0  0  0
  -56.6320    1.2768   73.2431 C   0  0  0  0  0  0  0  0  0  0  0  0
  -54.4566    0.8788   74.3938 C   0  0  0  0  0  0  0  0  0  0  0  0
  -55.0989   -3.1760   71.9263 C   0  0  0  0  0  0  0  0  0  0  0  0
  -56.6318   -3.2838   72.0475 C   0  0  0  0  0  0  0  0  0  0  0  0
  -52.9265    1.8939   69.4521 H   0  0  0  0  0  0  0  0  0  0  0  0
  -52.5261   -1.1404   67.8858 C   0  0  0  0  0  0  0  0  0  0  0  0
  -51.5104   -2.0972   67.2766 C   0  0  0  0  0  0  0  0  0  0  0  0
  -51.9579    0.1736   67.8223 O   0  0  0  0  0  0  0  0  0  0  0  0
  -51.1742    0.1910   68.3985 H   0  0  0  0  0  0  0  0  0  0  0  0
  -52.9287   -2.1916   73.1643 C   0  0  0  0  0  0  0  0  0  0  0  0
  -52.0135   -2.4380   71.9476 C   0  0  0  0  0  0  0  0  0  0  0  0
  -52.3655   -3.0821   74.3144 C   0  0  0  0  0  0  0  0  0  0  0  0
  -51.2414   -4.0140   73.8696 C   0  0  0  0  0  0  0  0  0  0  0  0
  -49.9807   -3.9084   74.7562 C   0  0  0  0  0  0  0  0  0  0  0  0
  -50.1471   -4.8548   75.9356 C   0  0  0  0  0  0  0  0  0  0  0  0
  -49.4949   -4.6138   77.1558 C   0  0  0  0  0  0  0  0  0  0  0  0
  -49.5726   -5.5354   78.2013 C   0  0  0  0  0  0  0  0  0  0  0  0
  -50.3014   -6.7128   78.0423 C   0  0  0  0  0  0  0  0  0  0  0  0
  -50.9563   -6.9521   76.8387 C   0  0  0  0  0  0  0  0  0  0  0  0
  -51.6720   -8.0956   76.6363 O   0  0  0  0  0  0  0  0  0  0  0  0
  -50.8886   -6.0376   75.7918 C   0  0  0  0  0  0  0  0  0  0  0  0
  -51.6187   -8.6363   77.4413 H   0  0  0  0  0  0  0  0  0  0  0  0
  -48.6029   -3.6234   72.8001 C   0  0  0  0  0  0  0  0  0  0  0  0
  -48.7938   -4.2794   74.0465 O   0  0  0  0  0  0  0  0  0  0  0  0
 44 45  1  0  0  0
 45 35  1  0  0  0
 35 34  1  0  0  0
 34 33  1  0  0  0
  1  2  1  0  0  0
  2  3  1  0  0  0
  3  4  1  0  0  0
  4  5  1  0  0  0
  5  6  1  0  0  0
  6  7  1  0  0  0
  7  8  2  0  0  0
  7  9  1  0  0  0
  9 10  1  0  0  0
 10 27  1  0  0  0
 27 28  1  0  0  0
 27 29  1  0  0  0
 10 11  1  0  0  0
 11 12  1  0  0  0
 12 13  2  0  0  0
 12 14  1  0  0  0
 14 15  1  0  0  0
 15 16  1  0  0  0
 15 17  1  0  0  0
  3 17  1  0  0  0
 15 18  1  0  0  0
 18 19  1  0  0  0
 18 20  1  0  0  0
 20 21  1  0  0  0
  3 21  1  0  0  0
 21 22  1  0  0  0
 21 23  1  0  0  0
  5 24  1  0  0  0
  1 24  1  0  0  0
 24 25  1  0  0  0
 35 36  1  0  0  0
 36 37  2  0  0  0
 37 38  1  0  0  0
 38 39  2  0  0  0
 39 40  1  0  0  0
 40 41  1  0  0  0
 40 42  2  0  0  0
 36 42  1  0  0  0
  1 31  1  0  0  0
 31 32  1  0  0  0
 31 33  1  0  0  0
 29 30  1  0  0  0
 16 26  1  0  0  0
 41 43  1  0  0  0
M  END
> <minimizedAffinity>
-7.24039

$$$$
ligand_4


 45 48  0  0  0  0  0  0  0  0999 V2000
  -56.2142   -1.8854   71.4771 C   0  0  0  0  0  0  0  0  0  0  0  0
  -56.1564   -0.6137   70.7874 O   0  0  0  0  0  0  0  0  0  0  0  0
  -54.8826    0.1052   70.8185 C   0  0  0  0  0  0  0  0  0  0  0  0
  -54.1230   -1.0254   70.0168 C   0  0  0  0  0  0  0  0  0  0  0  0
  -54.3205   -2.5372   70.1681 C   0  0  0  0  0  0  0  0  0  0  0  0
  -53.8112   -3.1226   68.9477 O   0  0  0  0  0  0  0  0  0  0  0  0
  -52.6146   -3.7381   69.0781 C   0  0  0  0  0  0  0  0  0  0  0  0
  -52.4764   -4.7875   69.6919 O   0  0  0  0  0  0  0  0  0  0  0  0
  -51.4928   -3.0119   68.3705 C   0  0  0  0  0  0  0  0  0  0  0  0
  -50.7965   -1.8693   69.1358 C   0  0  0  0  0  0  0  0  0  0  0  0
  -51.5538   -0.6545   68.7971 O   0  0  0  0  0  0  0  0  0  0  0  0
  -51.0027    0.5753   68.9454 C   0  0  0  0  0  0  0  0  0  0  0  0
  -49.8194    0.8012   69.1292 O   0  0  0  0  0  0  0  0  0  0  0  0
  -52.0434    1.6827   68.9008 C   0  0  0  0  0  0  0  0  0  0  0  0
  -53.0436    1.6564   70.0757 C   0  0  0  0  0  0  0  0  0  0  0  0
  -52.4407    1.1633   71.2748 O   0  0  0  0  0  0  0  0  0  0  0  0
  -54.2120    0.8950   69.6610 O   0  0  0  0  0  0  0  0  0  0  0  0
  -53.6782    3.0147   70.3740 C   0  0  0  0  0  0  0  0  0  0  0  0
  -52.7327    4.1131   70.8520 C   0  0  0  0  0  0  0  0  0  0  0  0
  -54.7538    2.7393   71.4301 C   0  0  0  0  0  0  0  0  0  0  0  0
  -55.6739    1.5178   71.0858 C   0  0  0  0  0  0  0  0  0  0  0  0
  -56.6022    1.9138   69.8753 C   0  0  0  0  0  0  0  0  0  0  0  0
  -56.6312    1.4258   72.3198 C   0  0  0  0  0  0  0  0  0  0  0  0
  -55.7727   -2.8768   70.3983 C   0  0  0  0  0  0  0  0  0  0  0  0
  -56.6319   -2.7409   69.1258 C   0  0  0  0  0  0  0  0  0  0  0  0
  -51.4760    1.2945   71.2249 H   0  0  0  0  0  0  0  0  0  0  0  0
  -50.6507   -2.0001   70.6901 C   0  0  0  0  0  0  0  0  0  0  0  0
  -49.8907   -3.2010   71.2363 C   0  0  0  0  0  0  0  0  0  0  0  0
  -50.0008   -0.8260   71.1927 O   0  0  0  0  0  0  0  0  0  0  0  0
  -50.1096   -0.8119   72.1595 H   0  0  0  0  0  0  0  0  0  0  0  0
  -55.5617   -2.0032   72.9289 C   0  0  0  0  0  0  0  0  0  0  0  0
  -54.0972   -1.5827   73.1682 C   0  0  0  0  0  0  0  0  0  0  0  0
  -55.7115   -3.4212   73.5613 C   0  0  0  0  0  0  0  0  0  0  0  0
  -54.7665   -3.6691   74.7340 C   0  0  0  0  0  0  0  0  0  0  0  0
  -54.1675   -5.0931   74.7386 C   0  0  0  0  0  0  0  0  0  0  0  0
  -52.6882   -4.9865   75.0773 C   0  0  0  0  0  0  0  0  0  0  0  0
  -51.9778   -3.7956   74.8549 C   0  0  0  0  0  0  0  0  0  0  0  0
  -50.6008   -3.7337   75.0755 C   0  0  0  0  0  0  0  0  0  0  0  0
  -49.9128   -4.8616   75.5196 C   0  0  0  0  0  0  0  0  0  0  0  0
  -50.6134   -6.0410   75.7496 C   0  0  0  0  0  0  0  0  0  0  0  0
  -49.9785   -7.1712   76.1745 O   0  0  0  0  0  0  0  0  0  0  0  0
  -51.9869   -6.1120   75.5368 C   0  0  0  0  0  0  0  0  0  0  0  0
  -49.0319   -6.9742   76.2660 H   0  0  0  0  0  0  0  0  0  0  0  0
  -56.2122   -5.9719   75.6621 C   0  0  0  0  0  0  0  0  0  0  0  0
  -54.7923   -5.9341   75.7144 O   0  0  0  0  0  0  0  0  0  0  0  0
 44 45  1  0  0  0
 45 35  1  0  0  0
 35 34  1  0  0  0
 34 33  1  0  0  0
  1  2  1  0  0  0
  2  3  1  0  0  0
  3  4  1  0  0  0
  4  5  1  0  0  0
  5  6  1  0  0  0
  6  7  1  0  0  0
  7  8  2  0  0  0
  7  9  1  0  0  0
  9 10  1  0  0  0
 10 27  1  0  0  0
 27 28  1  0  0  0
 27 29  1  0  0  0
 10 11  1  0  0  0
 11 12  1  0  0  0
 12 13  2  0  0  0
 12 14  1  0  0  0
 14 15  1  0  0  0
 15 16  1  0  0  0
 15 17  1  0  0  0
  3 17  1  0  0  0
 15 18  1  0  0  0
 18 19  1  0  0  0
 18 20  1  0  0  0
 20 21  1  0  0  0
  3 21  1  0  0  0
 21 22  1  0  0  0
 21 23  1  0  0  0
  5 24  1  0  0  0
  1 24  1  0  0  0
 24 25  1  0  0  0
 35 36  1  0  0  0
 36 37  2  0  0  0
 37 38  1  0  0  0
 38 39  2  0  0  0
 39 40  1  0  0  0
 40 41  1  0  0  0
 40 42  2  0  0  0
 36 42  1  0  0  0
  1 31  1  0  0  0
 31 32  1  0  0  0
 31 33  1  0  0  0
 29 30  1  0  0  0
 16 26  1  0  0  0
 41 43  1  0  0  0
M  END
> <minimizedAffinity>
-7.08410

$$$$
ligand_4


 45 48  0  0  0  0  0  0  0  0999 V2000
  -53.7989   -0.8839   67.8855 C   0  0  0  0  0  0  0  0  0  0  0  0
  -54.8057   -1.3748   68.8029 O   0  0  0  0  0  0  0  0  0  0  0  0
  -54.7907   -0.8337   70.1621 C   0  0  0  0  0  0  0  0  0  0  0  0
  -55.1141    0.6351   69.6765 C   0  0  0  0  0  0  0  0  0  0  0  0
  -54.5695    1.3177   68.4176 C   0  0  0  0  0  0  0  0  0  0  0  0
  -55.4821    2.4035   68.1351 O   0  0  0  0  0  0  0  0  0  0  0  0
  -55.0044    3.6309   68.4402 C   0  0  0  0  0  0  0  0  0  0  0  0
  -54.1036    4.1639   67.8066 O   0  0  0  0  0  0  0  0  0  0  0  0
  -55.7137    4.2698   69.6129 C   0  0  0  0  0  0  0  0  0  0  0  0
  -55.2107    3.9102   71.0249 C   0  0  0  0  0  0  0  0  0  0  0  0
  -55.9907    2.7300   71.4283 O   0  0  0  0  0  0  0  0  0  0  0  0
  -56.1183    2.3914   72.7348 C   0  0  0  0  0  0  0  0  0  0  0  0
  -55.8319    3.1047   73.6803 O   0  0  0  0  0  0  0  0  0  0  0  0
  -56.6316    0.9716   72.9150 C   0  0  0  0  0  0  0  0  0  0  0  0
  -55.6612   -0.1185   72.4139 C   0  0  0  0  0  0  0  0  0  0  0  0
  -54.2953    0.2723   72.5749 O   0  0  0  0  0  0  0  0  0  0  0  0
  -56.0115   -0.4419   71.0392 O   0  0  0  0  0  0  0  0  0  0  0  0
  -55.8606   -1.4764   73.0871 C   0  0  0  0  0  0  0  0  0  0  0  0
  -55.5798   -1.5364   74.5858 C   0  0  0  0  0  0  0  0  0  0  0  0
  -54.9429   -2.4444   72.3328 C   0  0  0  0  0  0  0  0  0  0  0  0
  -55.0583   -2.3330   70.7735 C   0  0  0  0  0  0  0  0  0  0  0  0
  -56.4561   -2.9112   70.3308 C   0  0  0  0  0  0  0  0  0  0  0  0
  -54.0068   -3.3699   70.2571 C   0  0  0  0  0  0  0  0  0  0  0  0
  -54.4718    0.3442   67.2687 C   0  0  0  0  0  0  0  0  0  0  0  0
  -55.8438   -0.0124   66.6632 C   0  0  0  0  0  0  0  0  0  0  0  0
  -54.2358    0.9434   73.2795 H   0  0  0  0  0  0  0  0  0  0  0  0
  -53.6800    3.6391   71.2190 C   0  0  0  0  0  0  0  0  0  0  0  0
  -52.7245    4.8168   71.0829 C   0  0  0  0  0  0  0  0  0  0  0  0
  -53.4727    3.0766   72.5206 O   0  0  0  0  0  0  0  0  0  0  0  0
  -52.5710    2.7124   72.5512 H   0  0  0  0  0  0  0  0  0  0  0  0
  -52.2932   -0.7476   68.3970 C   0  0  0  0  0  0  0  0  0  0  0  0
  -51.3464    0.3024   67.7807 C   0  0  0  0  0  0  0  0  0  0  0  0
  -51.5098   -2.0963   68.3809 C   0  0  0  0  0  0  0  0  0  0  0  0
  -50.5919   -2.2830   69.5860 C   0  0  0  0  0  0  0  0  0  0  0  0
  -51.3511   -2.2830   70.9314 C   0  0  0  0  0  0  0  0  0  0  0  0
  -50.4443   -2.8921   71.9902 C   0  0  0  0  0  0  0  0  0  0  0  0
  -49.1469   -3.3247   71.6713 C   0  0  0  0  0  0  0  0  0  0  0  0
  -48.3558   -3.9714   72.6224 C   0  0  0  0  0  0  0  0  0  0  0  0
  -48.8504   -4.1974   73.9058 C   0  0  0  0  0  0  0  0  0  0  0  0
  -50.1316   -3.7631   74.2290 C   0  0  0  0  0  0  0  0  0  0  0  0
  -50.6591   -3.9725   75.4696 O   0  0  0  0  0  0  0  0  0  0  0  0
  -50.9267   -3.1136   73.2894 C   0  0  0  0  0  0  0  0  0  0  0  0
  -50.0003   -4.4423   76.0067 H   0  0  0  0  0  0  0  0  0  0  0  0
  -50.6459   -0.0094   71.3047 C   0  0  0  0  0  0  0  0  0  0  0  0
  -51.7025   -0.9591   71.3485 O   0  0  0  0  0  0  0  0  0  0  0  0
 44 45  1  0  0  0
 45 35  1  0  0  0
 35 34  1  0  0  0
 34 33  1  0  0  0
  1  2  1  0  0  0
  2  3  1  0  0  0
  3  4  1  0  0  0
  4  5  1  0  0  0
  5  6  1  0  0  0
  6  7  1  0  0  0
  7  8  2  0  0  0
  7  9  1  0  0  0
  9 10  1  0  0  0
 10 27  1  0  0  0
 27 28  1  0  0  0
 27 29  1  0  0  0
 10 11  1  0  0  0
 11 12  1  0  0  0
 12 13  2  0  0  0
 12 14  1  0  0  0
 14 15  1  0  0  0
 15 16  1  0  0  0
 15 17  1  0  0  0
  3 17  1  0  0  0
 15 18  1  0  0  0
 18 19  1  0  0  0
 18 20  1  0  0  0
 20 21  1  0  0  0
  3 21  1  0  0  0
 21 22  1  0  0  0
 21 23  1  0  0  0
  5 24  1  0  0  0
  1 24  1  0  0  0
 24 25  1  0  0  0
 35 36  1  0  0  0
 36 37  2  0  0  0
 37 38  1  0  0  0
 38 39  2  0  0  0
 39 40  1  0  0  0
 40 41  1  0  0  0
 40 42  2  0  0  0
 36 42  1  0  0  0
  1 31  1  0  0  0
 31 32  1  0  0  0
 31 33  1  0  0  0
 29 30  1  0  0  0
 16 26  1  0  0  0
 41 43  1  0  0  0
M  END
> <minimizedAffinity>
-7.00823

$$$$
