ligand_3


 17 18  0  0  0  0  0  0  0  0999 V2000
  -54.7076   -3.9173   73.7477 C   0  0  0  0  0  0  0  0  0  0  0  0
  -53.2342   -4.0486   74.0316 C   0  0  0  0  0  0  0  0  0  0  0  0
  -52.2499   -3.1717   73.5387 C   0  0  0  0  0  0  0  0  0  0  0  0
  -52.5559   -2.0989   72.7450 O   0  0  0  0  0  0  0  0  0  0  0  0
  -50.8836   -3.3516   73.8361 C   0  0  0  0  0  0  0  0  0  0  0  0
  -49.8267   -2.4159   73.3086 C   0  0  0  0  0  0  0  0  0  0  0  0
  -50.5021   -4.4330   74.6473 C   0  0  0  0  0  0  0  0  0  0  0  0
  -49.1588   -4.5804   74.9210 O   0  0  0  0  0  0  0  0  0  0  0  0
  -48.7692   -5.6318   75.7127 C   0  0  0  0  0  0  0  0  0  0  0  0
  -49.5770   -6.5446   76.2550 C   0  0  0  0  0  0  0  0  0  0  0  0
  -51.0179   -6.4323   75.9932 C   0  0  0  0  0  0  0  0  0  0  0  0
  -51.8168   -7.2375   76.4598 O   0  0  0  0  0  0  0  0  0  0  0  0
  -51.4621   -5.3120   75.1469 C   0  0  0  0  0  0  0  0  0  0  0  0
  -52.8152   -5.1208   74.8413 C   0  0  0  0  0  0  0  0  0  0  0  0
  -53.7868   -5.9697   75.3177 O   0  0  0  0  0  0  0  0  0  0  0  0
  -53.5118   -2.0179   72.6245 H   0  0  0  0  0  0  0  0  0  0  0  0
  -53.3545   -6.6663   75.8623 H   0  0  0  0  0  0  0  0  0  0  0  0
  1  2  1  0  0  0
  2  3  2  0  0  0
  3  4  1  0  0  0
  3  5  1  0  0  0
  5  6  1  0  0  0
  5  7  2  0  0  0
  7  8  1  0  0  0
  8  9  1  0  0  0
  9 10  2  0  0  0
 10 11  1  0  0  0
 11 12  2  0  0  0
 11 13  1  0  0  0
  7 13  1  0  0  0
 13 14  2  0  0  0
  2 14  1  0  0  0
 14 15  1  0  0  0
  4 16  1  0  0  0
 15 17  1  0  0  0
M  END
> <minimizedAffinity>
-6.45816

$$$$
ligand_3


 17 18  0  0  0  0  0  0  0  0999 V2000
  -52.6154   -4.7831   74.9050 C   0  0  0  0  0  0  0  0  0  0  0  0
  -51.8481   -4.2148   73.7401 C   0  0  0  0  0  0  0  0  0  0  0  0
  -50.4628   -3.9671   73.7475 C   0  0  0  0  0  0  0  0  0  0  0  0
  -49.6773   -4.2315   74.8372 O   0  0  0  0  0  0  0  0  0  0  0  0
  -49.8022   -3.4276   72.6250 C   0  0  0  0  0  0  0  0  0  0  0  0
  -48.3193   -3.1593   72.6298 C   0  0  0  0  0  0  0  0  0  0  0  0
  -50.5504   -3.1349   71.4728 C   0  0  0  0  0  0  0  0  0  0  0  0
  -49.8747   -2.6098   70.3916 O   0  0  0  0  0  0  0  0  0  0  0  0
  -50.5911   -2.3187   69.2575 C   0  0  0  0  0  0  0  0  0  0  0  0
  -51.9031   -2.4962   69.0934 C   0  0  0  0  0  0  0  0  0  0  0  0
  -52.6692   -3.0527   70.2163 C   0  0  0  0  0  0  0  0  0  0  0  0
  -53.8783   -3.2412   70.1339 O   0  0  0  0  0  0  0  0  0  0  0  0
  -51.9235   -3.3745   71.4447 C   0  0  0  0  0  0  0  0  0  0  0  0
  -52.5655   -3.9095   72.5684 C   0  0  0  0  0  0  0  0  0  0  0  0
  -53.9184   -4.1573   72.5735 O   0  0  0  0  0  0  0  0  0  0  0  0
  -50.1931   -4.6395   75.5460 H   0  0  0  0  0  0  0  0  0  0  0  0
  -54.2877   -3.8976   71.6988 H   0  0  0  0  0  0  0  0  0  0  0  0
  1  2  1  0  0  0
  2  3  2  0  0  0
  3  4  1  0  0  0
  3  5  1  0  0  0
  5  6  1  0  0  0
  5  7  2  0  0  0
  7  8  1  0  0  0
  8  9  1  0  0  0
  9 10  2  0  0  0
 10 11  1  0  0  0
 11 12  2  0  0  0
 11 13  1  0  0  0
  7 13  1  0  0  0
 13 14  2  0  0  0
  2 14  1  0  0  0
 14 15  1  0  0  0
  4 16  1  0  0  0
 15 17  1  0  0  0
M  END
> <minimizedAffinity>
-6.24677

$$$$
ligand_3


 17 18  0  0  0  0  0  0  0  0999 V2000
  -53.2665   -2.7587   70.5058 C   0  0  0  0  0  0  0  0  0  0  0  0
  -52.2540   -3.1294   71.5575 C   0  0  0  0  0  0  0  0  0  0  0  0
  -50.8927   -2.7758   71.5080 C   0  0  0  0  0  0  0  0  0  0  0  0
  -50.3628   -2.0453   70.4785 O   0  0  0  0  0  0  0  0  0  0  0  0
  -49.9921   -3.1584   72.5229 C   0  0  0  0  0  0  0  0  0  0  0  0
  -48.5334   -2.7833   72.4723 C   0  0  0  0  0  0  0  0  0  0  0  0
  -50.4721   -3.9085   73.6091 C   0  0  0  0  0  0  0  0  0  0  0  0
  -49.5666   -4.2655   74.5857 O   0  0  0  0  0  0  0  0  0  0  0  0
  -50.0196   -4.9982   75.6544 C   0  0  0  0  0  0  0  0  0  0  0  0
  -51.2745   -5.4084   75.8465 C   0  0  0  0  0  0  0  0  0  0  0  0
  -52.2780   -5.0542   74.8342 C   0  0  0  0  0  0  0  0  0  0  0  0
  -53.4495   -5.3993   74.9476 O   0  0  0  0  0  0  0  0  0  0  0  0
  -51.8176   -4.2674   73.6777 C   0  0  0  0  0  0  0  0  0  0  0  0
  -52.6995   -3.8810   72.6609 C   0  0  0  0  0  0  0  0  0  0  0  0
  -54.0321   -4.2191   72.6982 O   0  0  0  0  0  0  0  0  0  0  0  0
  -51.0488   -1.7843   69.8491 H   0  0  0  0  0  0  0  0  0  0  0  0
  -54.2005   -4.7397   73.5164 H   0  0  0  0  0  0  0  0  0  0  0  0
  1  2  1  0  0  0
  2  3  2  0  0  0
  3  4  1  0  0  0
  3  5  1  0  0  0
  5  6  1  0  0  0
  5  7  2  0  0  0
  7  8  1  0  0  0
  8  9  1  0  0  0
  9 10  2  0  0  0
 10 11  1  0  0  0
 11 12  2  0  0  0
 11 13  1  0  0  0
  7 13  1  0  0  0
 13 14  2  0  0  0
  2 14  1  0  0  0
 14 15  1  0  0  0
  4 16  1  0  0  0
 15 17  1  0  0  0
M  END
> <minimizedAffinity>
-6.24222

$$$$
ligand_3


 17 18  0  0  0  0  0  0  0  0999 V2000
  -48.1988   -6.3497   76.4835 C   0  0  0  0  0  0  0  0  0  0  0  0
  -49.6286   -6.1283   76.0650 C   0  0  0  0  0  0  0  0  0  0  0  0
  -50.6808   -7.0247   76.3296 C   0  0  0  0  0  0  0  0  0  0  0  0
  -50.4899   -8.1982   77.0084 O   0  0  0  0  0  0  0  0  0  0  0  0
  -51.9996   -6.7626   75.9058 C   0  0  0  0  0  0  0  0  0  0  0  0
  -53.1284   -7.7209   76.1856 C   0  0  0  0  0  0  0  0  0  0  0  0
  -52.2640   -5.5742   75.2052 C   0  0  0  0  0  0  0  0  0  0  0  0
  -53.5640   -5.3465   74.8060 O   0  0  0  0  0  0  0  0  0  0  0  0
  -53.8394   -4.1896   74.1207 C   0  0  0  0  0  0  0  0  0  0  0  0
  -52.9566   -3.2438   73.7951 C   0  0  0  0  0  0  0  0  0  0  0  0
  -51.5575   -3.4389   74.1971 C   0  0  0  0  0  0  0  0  0  0  0  0
  -50.6942   -2.6098   73.9297 O   0  0  0  0  0  0  0  0  0  0  0  0
  -51.2358   -4.6723   74.9346 C   0  0  0  0  0  0  0  0  0  0  0  0
  -49.9306   -4.9476   75.3609 C   0  0  0  0  0  0  0  0  0  0  0  0
  -48.8941   -4.0793   75.1097 O   0  0  0  0  0  0  0  0  0  0  0  0
  -49.5730   -8.2834   77.3031 H   0  0  0  0  0  0  0  0  0  0  0  0
  -49.2467   -3.3057   74.6139 H   0  0  0  0  0  0  0  0  0  0  0  0
  1  2  1  0  0  0
  2  3  2  0  0  0
  3  4  1  0  0  0
  3  5  1  0  0  0
  5  6  1  0  0  0
  5  7  2  0  0  0
  7  8  1  0  0  0
  8  9  1  0  0  0
  9 10  2  0  0  0
 10 11  1  0  0  0
 11 12  2  0  0  0
 11 13  1  0  0  0
  7 13  1  0  0  0
 13 14  2  0  0  0
  2 14  1  0  0  0
 14 15  1  0  0  0
  4 16  1  0  0  0
 15 17  1  0  0  0
M  END
> <minimizedAffinity>
-6.23828

$$$$
ligand_3


 17 18  0  0  0  0  0  0  0  0999 V2000
  -50.5805   -5.9034   76.5825 C   0  0  0  0  0  0  0  0  0  0  0  0
  -49.9157   -5.1672   75.4491 C   0  0  0  0  0  0  0  0  0  0  0  0
  -48.5648   -5.3221   75.0863 C   0  0  0  0  0  0  0  0  0  0  0  0
  -47.7230   -6.1774   75.7452 O   0  0  0  0  0  0  0  0  0  0  0  0
  -47.9988   -4.5986   74.0168 C   0  0  0  0  0  0  0  0  0  0  0  0
  -46.5523   -4.7605   73.6267 C   0  0  0  0  0  0  0  0  0  0  0  0
  -48.8092   -3.7047   73.2978 C   0  0  0  0  0  0  0  0  0  0  0  0
  -48.2263   -3.0137   72.2567 O   0  0  0  0  0  0  0  0  0  0  0  0
  -49.0047   -2.1365   71.5434 C   0  0  0  0  0  0  0  0  0  0  0  0
  -50.2956   -1.8801   71.7614 C   0  0  0  0  0  0  0  0  0  0  0  0
  -50.9636   -2.5904   72.8598 C   0  0  0  0  0  0  0  0  0  0  0  0
  -52.1482   -2.4020   73.1157 O   0  0  0  0  0  0  0  0  0  0  0  0
  -50.1504   -3.5381   73.6403 C   0  0  0  0  0  0  0  0  0  0  0  0
  -50.6976   -4.2629   74.7062 C   0  0  0  0  0  0  0  0  0  0  0  0
  -52.0164   -4.1215   75.0698 O   0  0  0  0  0  0  0  0  0  0  0  0
  -48.1945   -6.6674   76.4326 H   0  0  0  0  0  0  0  0  0  0  0  0
  -52.4375   -3.4630   74.4715 H   0  0  0  0  0  0  0  0  0  0  0  0
  1  2  1  0  0  0
  2  3  2  0  0  0
  3  4  1  0  0  0
  3  5  1  0  0  0
  5  6  1  0  0  0
  5  7  2  0  0  0
  7  8  1  0  0  0
  8  9  1  0  0  0
  9 10  2  0  0  0
 10 11  1  0  0  0
 11 12  2  0  0  0
 11 13  1  0  0  0
  7 13  1  0  0  0
 13 14  2  0  0  0
  2 14  1  0  0  0
 14 15  1  0  0  0
  4 16  1  0  0  0
 15 17  1  0  0  0
M  END
> <minimizedAffinity>
-6.18934

$$$$
