ligand_21


 25 27  0  0  0  0  0  0  0  0999 V2000
  -50.3139   -3.2386   72.8140 C   0  0  0  0  0  0  0  0  0  0  0  0
  -51.5018   -3.1335   73.5426 C   0  0  0  0  0  0  0  0  0  0  0  0
  -52.6086   -2.5467   72.9976 O   0  0  0  0  0  0  0  0  0  0  0  0
  -51.6024   -3.6530   74.8273 C   0  0  0  0  0  0  0  0  0  0  0  0
  -50.5151   -4.3345   75.3728 C   0  0  0  0  0  0  0  0  0  0  0  0
  -50.6850   -4.8614   76.6298 O   0  0  0  0  0  0  0  0  0  0  0  0
  -49.6328   -5.5568   77.1968 C   0  0  0  0  0  0  0  0  0  0  0  0
  -48.4528   -5.7762   76.6009 C   0  0  0  0  0  0  0  0  0  0  0  0
  -48.2313   -5.2337   75.2528 C   0  0  0  0  0  0  0  0  0  0  0  0
  -47.1729   -5.4062   74.6578 O   0  0  0  0  0  0  0  0  0  0  0  0
  -49.3330   -4.4766   74.6416 C   0  0  0  0  0  0  0  0  0  0  0  0
  -49.2237   -3.9232   73.3577 C   0  0  0  0  0  0  0  0  0  0  0  0
  -48.0795   -4.0314   72.6089 O   0  0  0  0  0  0  0  0  0  0  0  0
  -52.4219   -2.4591   72.0432 H   0  0  0  0  0  0  0  0  0  0  0  0
  -47.4278   -4.5713   73.1098 H   0  0  0  0  0  0  0  0  0  0  0  0
  -49.9116   -6.0745   78.5434 C   0  0  0  0  0  0  0  0  0  0  0  0
  -50.6961   -7.2258   78.7068 C   0  0  0  0  0  0  0  0  0  0  0  0
  -50.9731   -7.7219   79.9844 C   0  0  0  0  0  0  0  0  0  0  0  0
  -50.4711   -7.0580   81.0987 C   0  0  0  0  0  0  0  0  0  0  0  0
  -50.7184   -7.5023   82.3632 O   0  0  0  0  0  0  0  0  0  0  0  0
  -49.6989   -5.9115   80.9565 C   0  0  0  0  0  0  0  0  0  0  0  0
  -49.4173   -5.4195   79.6802 C   0  0  0  0  0  0  0  0  0  0  0  0
  -51.2676   -8.3016   82.3118 H   0  0  0  0  0  0  0  0  0  0  0  0
  -49.8769   -1.3714   71.5354 C   0  0  0  0  0  0  0  0  0  0  0  0
  -50.2678   -2.7464   71.5339 O   0  0  0  0  0  0  0  0  0  0  0  0
 24 25  1  0  0  0
 25  1  1  0  0  0
  1  2  2  0  0  0
  2  3  1  0  0  0
  2  4  1  0  0  0
  4  5  2  0  0  0
  5  6  1  0  0  0
  6  7  1  0  0  0
  7 16  1  0  0  0
 16 17  2  0  0  0
 17 18  1  0  0  0
 18 19  2  0  0  0
 19 20  1  0  0  0
 19 21  1  0  0  0
 21 22  2  0  0  0
 16 22  1  0  0  0
  7  8  2  0  0  0
  8  9  1  0  0  0
  9 10  2  0  0  0
  9 11  1  0  0  0
  5 11  1  0  0  0
 11 12  2  0  0  0
  1 12  1  0  0  0
 12 13  1  0  0  0
  3 14  1  0  0  0
 20 23  1  0  0  0
 13 15  1  0  0  0
M  END
> <minimizedAffinity>
-8.12470

$$$$
ligand_21


 25 27  0  0  0  0  0  0  0  0999 V2000
  -51.7309   -2.4792   69.3831 C   0  0  0  0  0  0  0  0  0  0  0  0
  -50.3802   -2.2185   69.6298 C   0  0  0  0  0  0  0  0  0  0  0  0
  -49.6144   -1.5593   68.7102 O   0  0  0  0  0  0  0  0  0  0  0  0
  -49.7865   -2.5901   70.8296 C   0  0  0  0  0  0  0  0  0  0  0  0
  -50.5676   -3.1849   71.8198 C   0  0  0  0  0  0  0  0  0  0  0  0
  -49.9368   -3.4944   73.0000 O   0  0  0  0  0  0  0  0  0  0  0  0
  -50.6834   -4.0721   74.0104 C   0  0  0  0  0  0  0  0  0  0  0  0
  -51.9944   -4.3391   73.9344 C   0  0  0  0  0  0  0  0  0  0  0  0
  -52.7089   -4.0188   72.6904 C   0  0  0  0  0  0  0  0  0  0  0  0
  -53.9091   -4.2378   72.5653 O   0  0  0  0  0  0  0  0  0  0  0  0
  -51.9270   -3.4202   71.5991 C   0  0  0  0  0  0  0  0  0  0  0  0
  -52.5161   -3.0732   70.3747 C   0  0  0  0  0  0  0  0  0  0  0  0
  -53.8443   -3.2942   70.1127 O   0  0  0  0  0  0  0  0  0  0  0  0
  -50.2400   -1.1863   68.0599 H   0  0  0  0  0  0  0  0  0  0  0  0
  -54.2626   -3.6754   70.9169 H   0  0  0  0  0  0  0  0  0  0  0  0
  -49.9169   -4.3702   75.2281 C   0  0  0  0  0  0  0  0  0  0  0  0
  -48.7614   -5.1623   75.1566 C   0  0  0  0  0  0  0  0  0  0  0  0
  -48.0295   -5.4577   76.3107 C   0  0  0  0  0  0  0  0  0  0  0  0
  -48.4616   -4.9665   77.5381 C   0  0  0  0  0  0  0  0  0  0  0  0
  -47.7828   -5.2317   78.6898 O   0  0  0  0  0  0  0  0  0  0  0  0
  -49.6083   -4.1870   77.6293 C   0  0  0  0  0  0  0  0  0  0  0  0
  -50.3359   -3.8870   76.4757 C   0  0  0  0  0  0  0  0  0  0  0  0
  -47.0124   -5.7842   78.4783 H   0  0  0  0  0  0  0  0  0  0  0  0
  -52.1763   -3.0788   67.2026 C   0  0  0  0  0  0  0  0  0  0  0  0
  -52.2883   -2.0616   68.2008 O   0  0  0  0  0  0  0  0  0  0  0  0
 24 25  1  0  0  0
 25  1  1  0  0  0
  1  2  2  0  0  0
  2  3  1  0  0  0
  2  4  1  0  0  0
  4  5  2  0  0  0
  5  6  1  0  0  0
  6  7  1  0  0  0
  7 16  1  0  0  0
 16 17  2  0  0  0
 17 18  1  0  0  0
 18 19  2  0  0  0
 19 20  1  0  0  0
 19 21  1  0  0  0
 21 22  2  0  0  0
 16 22  1  0  0  0
  7  8  2  0  0  0
  8  9  1  0  0  0
  9 10  2  0  0  0
  9 11  1  0  0  0
  5 11  1  0  0  0
 11 12  2  0  0  0
  1 12  1  0  0  0
 12 13  1  0  0  0
  3 14  1  0  0  0
 20 23  1  0  0  0
 13 15  1  0  0  0
M  END
> <minimizedAffinity>
-7.64819

$$$$
ligand_21


 25 27  0  0  0  0  0  0  0  0999 V2000
  -50.3222   -4.2059   74.4461 C   0  0  0  0  0  0  0  0  0  0  0  0
  -51.6634   -4.5955   74.4954 C   0  0  0  0  0  0  0  0  0  0  0  0
  -52.1926   -5.1441   75.6293 O   0  0  0  0  0  0  0  0  0  0  0  0
  -52.5053   -4.4047   73.4068 C   0  0  0  0  0  0  0  0  0  0  0  0
  -52.0124   -3.7666   72.2691 C   0  0  0  0  0  0  0  0  0  0  0  0
  -52.8998   -3.5689   71.2396 O   0  0  0  0  0  0  0  0  0  0  0  0
  -52.4502   -2.9260   70.1009 C   0  0  0  0  0  0  0  0  0  0  0  0
  -51.2065   -2.4577   69.9288 C   0  0  0  0  0  0  0  0  0  0  0  0
  -50.2265   -2.6441   71.0085 C   0  0  0  0  0  0  0  0  0  0  0  0
  -49.0753   -2.2334   70.9080 O   0  0  0  0  0  0  0  0  0  0  0  0
  -50.6825   -3.3412   72.2196 C   0  0  0  0  0  0  0  0  0  0  0  0
  -49.8267   -3.5642   73.3079 C   0  0  0  0  0  0  0  0  0  0  0  0
  -48.5125   -3.1712   73.2983 O   0  0  0  0  0  0  0  0  0  0  0  0
  -51.5355   -4.9863   76.3340 H   0  0  0  0  0  0  0  0  0  0  0  0
  -48.3324   -2.7025   72.4527 H   0  0  0  0  0  0  0  0  0  0  0  0
  -53.4721   -2.7689   69.0569 C   0  0  0  0  0  0  0  0  0  0  0  0
  -53.3779   -3.5001   67.8634 C   0  0  0  0  0  0  0  0  0  0  0  0
  -54.3413   -3.3519   66.8610 C   0  0  0  0  0  0  0  0  0  0  0  0
  -55.3943   -2.4634   67.0515 C   0  0  0  0  0  0  0  0  0  0  0  0
  -56.3542   -2.2831   66.1009 O   0  0  0  0  0  0  0  0  0  0  0  0
  -55.4995   -1.7247   68.2237 C   0  0  0  0  0  0  0  0  0  0  0  0
  -54.5405   -1.8771   69.2273 C   0  0  0  0  0  0  0  0  0  0  0  0
  -56.1538   -2.8551   65.3420 H   0  0  0  0  0  0  0  0  0  0  0  0
  -48.8910   -5.6533   75.5274 C   0  0  0  0  0  0  0  0  0  0  0  0
  -49.5341   -4.3769   75.5562 O   0  0  0  0  0  0  0  0  0  0  0  0
 24 25  1  0  0  0
 25  1  1  0  0  0
  1  2  2  0  0  0
  2  3  1  0  0  0
  2  4  1  0  0  0
  4  5  2  0  0  0
  5  6  1  0  0  0
  6  7  1  0  0  0
  7 16  1  0  0  0
 16 17  2  0  0  0
 17 18  1  0  0  0
 18 19  2  0  0  0
 19 20  1  0  0  0
 19 21  1  0  0  0
 21 22  2  0  0  0
 16 22  1  0  0  0
  7  8  2  0  0  0
  8  9  1  0  0  0
  9 10  2  0  0  0
  9 11  1  0  0  0
  5 11  1  0  0  0
 11 12  2  0  0  0
  1 12  1  0  0  0
 12 13  1  0  0  0
  3 14  1  0  0  0
 20 23  1  0  0  0
 13 15  1  0  0  0
M  END
> <minimizedAffinity>
-7.55571

$$$$
ligand_21


 25 27  0  0  0  0  0  0  0  0999 V2000
  -50.9155   -5.3952   75.8765 C   0  0  0  0  0  0  0  0  0  0  0  0
  -49.6604   -4.8373   75.6186 C   0  0  0  0  0  0  0  0  0  0  0  0
  -48.5820   -5.1477   76.3978 O   0  0  0  0  0  0  0  0  0  0  0  0
  -49.4650   -3.9795   74.5432 C   0  0  0  0  0  0  0  0  0  0  0  0
  -50.5287   -3.7163   73.6809 C   0  0  0  0  0  0  0  0  0  0  0  0
  -50.2675   -2.8936   72.6125 O   0  0  0  0  0  0  0  0  0  0  0  0
  -51.2948   -2.6220   71.7277 C   0  0  0  0  0  0  0  0  0  0  0  0
  -52.5352   -3.1202   71.8213 C   0  0  0  0  0  0  0  0  0  0  0  0
  -52.8557   -4.0091   72.9473 C   0  0  0  0  0  0  0  0  0  0  0  0
  -53.9728   -4.4969   73.0818 O   0  0  0  0  0  0  0  0  0  0  0  0
  -51.7801   -4.2948   73.9076 C   0  0  0  0  0  0  0  0  0  0  0  0
  -51.9824   -5.1346   75.0123 C   0  0  0  0  0  0  0  0  0  0  0  0
  -53.1961   -5.7161   75.2773 O   0  0  0  0  0  0  0  0  0  0  0  0
  -48.8534   -5.9164   76.9354 H   0  0  0  0  0  0  0  0  0  0  0  0
  -53.8238   -5.4701   74.5613 H   0  0  0  0  0  0  0  0  0  0  0  0
  -50.9164   -1.7285   70.6242 C   0  0  0  0  0  0  0  0  0  0  0  0
  -51.4583   -0.4370   70.5463 C   0  0  0  0  0  0  0  0  0  0  0  0
  -51.1102    0.4179   69.4960 C   0  0  0  0  0  0  0  0  0  0  0  0
  -50.2257   -0.0258   68.5187 C   0  0  0  0  0  0  0  0  0  0  0  0
  -49.8606    0.7707   67.4746 O   0  0  0  0  0  0  0  0  0  0  0  0
  -49.6852   -1.3047   68.5750 C   0  0  0  0  0  0  0  0  0  0  0  0
  -50.0283   -2.1564   69.6272 C   0  0  0  0  0  0  0  0  0  0  0  0
  -50.3129    1.6258   67.5609 H   0  0  0  0  0  0  0  0  0  0  0  0
  -50.6057   -7.5741   76.5611 C   0  0  0  0  0  0  0  0  0  0  0  0
  -51.0575   -6.2678   76.9259 O   0  0  0  0  0  0  0  0  0  0  0  0
 24 25  1  0  0  0
 25  1  1  0  0  0
  1  2  2  0  0  0
  2  3  1  0  0  0
  2  4  1  0  0  0
  4  5  2  0  0  0
  5  6  1  0  0  0
  6  7  1  0  0  0
  7 16  1  0  0  0
 16 17  2  0  0  0
 17 18  1  0  0  0
 18 19  2  0  0  0
 19 20  1  0  0  0
 19 21  1  0  0  0
 21 22  2  0  0  0
 16 22  1  0  0  0
  7  8  2  0  0  0
  8  9  1  0  0  0
  9 10  2  0  0  0
  9 11  1  0  0  0
  5 11  1  0  0  0
 11 12  2  0  0  0
  1 12  1  0  0  0
 12 13  1  0  0  0
  3 14  1  0  0  0
 20 23  1  0  0  0
 13 15  1  0  0  0
M  END
> <minimizedAffinity>
-7.55027

$$$$
ligand_21


 25 27  0  0  0  0  0  0  0  0999 V2000
  -52.4139   -0.3494   69.4810 C   0  0  0  0  0  0  0  0  0  0  0  0
  -51.1181   -0.2622   69.9970 C   0  0  0  0  0  0  0  0  0  0  0  0
  -50.2158    0.6236   69.4795 O   0  0  0  0  0  0  0  0  0  0  0  0
  -50.7209   -1.0474   71.0722 C   0  0  0  0  0  0  0  0  0  0  0  0
  -51.6491   -1.8956   71.6749 C   0  0  0  0  0  0  0  0  0  0  0  0
  -51.2122   -2.6179   72.7583 O   0  0  0  0  0  0  0  0  0  0  0  0
  -52.1095   -3.4587   73.3907 C   0  0  0  0  0  0  0  0  0  0  0  0
  -53.3929   -3.6113   73.0370 C   0  0  0  0  0  0  0  0  0  0  0  0
  -53.9026   -2.8528   71.8856 C   0  0  0  0  0  0  0  0  0  0  0  0
  -55.0688   -2.9499   71.5188 O   0  0  0  0  0  0  0  0  0  0  0  0
  -52.9577   -1.9671   71.1904 C   0  0  0  0  0  0  0  0  0  0  0  0
  -53.3465   -1.1970   70.0848 C   0  0  0  0  0  0  0  0  0  0  0  0
  -54.6177   -1.2429   69.5714 O   0  0  0  0  0  0  0  0  0  0  0  0
  -50.7307    1.2275   68.9106 H   0  0  0  0  0  0  0  0  0  0  0  0
  -55.1579   -1.8481   70.1273 H   0  0  0  0  0  0  0  0  0  0  0  0
  -51.5443   -4.1905   74.5327 C   0  0  0  0  0  0  0  0  0  0  0  0
  -52.0724   -5.4365   74.9019 C   0  0  0  0  0  0  0  0  0  0  0  0
  -51.5463   -6.1370   75.9916 C   0  0  0  0  0  0  0  0  0  0  0  0
  -50.4966   -5.5836   76.7170 C   0  0  0  0  0  0  0  0  0  0  0  0
  -49.9545   -6.2279   77.7888 O   0  0  0  0  0  0  0  0  0  0  0  0
  -49.9660   -4.3468   76.3711 C   0  0  0  0  0  0  0  0  0  0  0  0
  -50.4876   -3.6500   75.2790 C   0  0  0  0  0  0  0  0  0  0  0  0
  -50.4211   -7.0702   77.9158 H   0  0  0  0  0  0  0  0  0  0  0  0
  -53.4406    1.6398   68.9319 C   0  0  0  0  0  0  0  0  0  0  0  0
  -52.7779    0.4712   68.4432 O   0  0  0  0  0  0  0  0  0  0  0  0
 24 25  1  0  0  0
 25  1  1  0  0  0
  1  2  2  0  0  0
  2  3  1  0  0  0
  2  4  1  0  0  0
  4  5  2  0  0  0
  5  6  1  0  0  0
  6  7  1  0  0  0
  7 16  1  0  0  0
 16 17  2  0  0  0
 17 18  1  0  0  0
 18 19  2  0  0  0
 19 20  1  0  0  0
 19 21  1  0  0  0
 21 22  2  0  0  0
 16 22  1  0  0  0
  7  8  2  0  0  0
  8  9  1  0  0  0
  9 10  2  0  0  0
  9 11  1  0  0  0
  5 11  1  0  0  0
 11 12  2  0  0  0
  1 12  1  0  0  0
 12 13  1  0  0  0
  3 14  1  0  0  0
 20 23  1  0  0  0
 13 15  1  0  0  0
M  END
> <minimizedAffinity>
-7.31886

$$$$
