ligand_25


 19 20  0  0  0  0  0  0  0  0999 V2000
  -50.6559   -3.3377   74.1133 C   0  0  0  0  0  0  0  0  0  0  0  0
  -49.7313   -2.4608   73.2518 C   0  0  0  0  0  0  0  0  0  0  0  0
  -48.7834   -3.2807   72.4007 C   0  0  0  0  0  0  0  0  0  0  0  0
  -48.0112   -4.2655   73.2440 C   0  0  0  0  0  0  0  0  0  0  0  0
  -46.9179   -4.6903   72.8702 O   0  0  0  0  0  0  0  0  0  0  0  0
  -48.6080   -4.7486   74.5360 C   0  0  0  0  0  0  0  0  0  0  0  0
  -49.8134   -4.3060   74.9392 C   0  0  0  0  0  0  0  0  0  0  0  0
  -50.3780   -4.7012   76.2770 C   0  0  0  0  0  0  0  0  0  0  0  0
  -50.1648   -3.5919   77.1715 O   0  0  0  0  0  0  0  0  0  0  0  0
  -49.8035   -5.9858   76.9472 C   0  0  0  0  0  0  0  0  0  0  0  0
  -50.7570   -7.1704   76.7328 C   0  0  0  0  0  0  0  0  0  0  0  0
  -49.7744   -5.7900   78.3801 O   0  0  0  0  0  0  0  0  0  0  0  0
  -48.3750   -6.3824   76.5333 C   0  0  0  0  0  0  0  0  0  0  0  0
  -47.7569   -5.7045   75.3105 C   0  0  0  0  0  0  0  0  0  0  0  0
  -49.3261   -3.1658   76.9212 H   0  0  0  0  0  0  0  0  0  0  0  0
  -49.9487   -4.8350   78.5193 H   0  0  0  0  0  0  0  0  0  0  0  0
  -53.1292   -4.1161   74.1874 C   0  0  0  0  0  0  0  0  0  0  0  0
  -51.8387   -4.0412   73.3641 C   0  0  0  0  0  0  0  0  0  0  0  0
  -52.1631   -3.4847   71.9717 C   0  0  0  0  0  0  0  0  0  0  0  0
 17 18  1  0  0  0
 18 19  1  0  0  0
 18  1  1  0  0  0
  1  2  1  0  0  0
  2  3  1  0  0  0
  3  4  1  0  0  0
  4  5  2  0  0  0
  4  6  1  0  0  0
  6  7  2  0  0  0
  1  7  1  0  0  0
  7  8  1  0  0  0
  8 10  1  0  0  0
 10 13  1  0  0  0
 13 14  1  0  0  0
  6 14  1  0  0  0
 10 12  1  0  0  0
 10 11  1  0  0  0
  8  9  1  0  0  0
  9 15  1  0  0  0
 12 16  1  0  0  0
M  END
> <minimizedAffinity>
-6.71204

$$$$
ligand_25


 19 20  0  0  0  0  0  0  0  0999 V2000
  -51.7900   -2.9520   69.3042 C   0  0  0  0  0  0  0  0  0  0  0  0
  -50.5182   -2.0888   69.2454 C   0  0  0  0  0  0  0  0  0  0  0  0
  -50.7718   -0.6550   69.6635 C   0  0  0  0  0  0  0  0  0  0  0  0
  -51.9065   -0.0519   68.8724 C   0  0  0  0  0  0  0  0  0  0  0  0
  -51.9857    1.1668   68.7175 O   0  0  0  0  0  0  0  0  0  0  0  0
  -52.9611   -0.9565   68.2995 C   0  0  0  0  0  0  0  0  0  0  0  0
  -52.8933   -2.2878   68.4849 C   0  0  0  0  0  0  0  0  0  0  0  0
  -53.8838   -3.2141   67.8326 C   0  0  0  0  0  0  0  0  0  0  0  0
  -53.2336   -3.7879   66.6819 O   0  0  0  0  0  0  0  0  0  0  0  0
  -55.2417   -2.6034   67.3717 C   0  0  0  0  0  0  0  0  0  0  0  0
  -56.3432   -2.9218   68.3933 C   0  0  0  0  0  0  0  0  0  0  0  0
  -55.6620   -3.2667   66.1569 O   0  0  0  0  0  0  0  0  0  0  0  0
  -55.2340   -1.0953   67.0635 C   0  0  0  0  0  0  0  0  0  0  0  0
  -54.0305   -0.2667   67.5129 C   0  0  0  0  0  0  0  0  0  0  0  0
  -52.6341   -3.1151   66.3136 H   0  0  0  0  0  0  0  0  0  0  0  0
  -54.8858   -3.7862   65.8580 H   0  0  0  0  0  0  0  0  0  0  0  0
  -51.1235   -3.5294   71.7436 C   0  0  0  0  0  0  0  0  0  0  0  0
  -52.2660   -3.3876   70.7320 C   0  0  0  0  0  0  0  0  0  0  0  0
  -53.3784   -2.5292   71.3481 C   0  0  0  0  0  0  0  0  0  0  0  0
 17 18  1  0  0  0
 18 19  1  0  0  0
 18  1  1  0  0  0
  1  2  1  0  0  0
  2  3  1  0  0  0
  3  4  1  0  0  0
  4  5  2  0  0  0
  4  6  1  0  0  0
  6  7  2  0  0  0
  1  7  1  0  0  0
  7  8  1  0  0  0
  8 10  1  0  0  0
 10 13  1  0  0  0
 13 14  1  0  0  0
  6 14  1  0  0  0
 10 12  1  0  0  0
 10 11  1  0  0  0
  8  9  1  0  0  0
  9 15  1  0  0  0
 12 16  1  0  0  0
M  END
> <minimizedAffinity>
-6.32195

$$$$
ligand_25


 19 20  0  0  0  0  0  0  0  0999 V2000
  -54.7531   -0.9500   68.3578 C   0  0  0  0  0  0  0  0  0  0  0  0
  -55.3319   -1.5471   67.0637 C   0  0  0  0  0  0  0  0  0  0  0  0
  -54.9769   -3.0098   66.8916 C   0  0  0  0  0  0  0  0  0  0  0  0
  -53.4868   -3.2227   67.0005 C   0  0  0  0  0  0  0  0  0  0  0  0
  -52.9509   -4.1939   66.4668 O   0  0  0  0  0  0  0  0  0  0  0  0
  -52.6648   -2.2493   67.7976 C   0  0  0  0  0  0  0  0  0  0  0  0
  -53.2478   -1.1981   68.4031 C   0  0  0  0  0  0  0  0  0  0  0  0
  -52.4259   -0.1600   69.1182 C   0  0  0  0  0  0  0  0  0  0  0  0
  -52.3159    0.9746   68.2369 O   0  0  0  0  0  0  0  0  0  0  0  0
  -50.9911   -0.5674   69.5708 C   0  0  0  0  0  0  0  0  0  0  0  0
  -50.9822   -0.9122   71.0672 C   0  0  0  0  0  0  0  0  0  0  0  0
  -50.1215    0.5824   69.4517 O   0  0  0  0  0  0  0  0  0  0  0  0
  -50.3263   -1.7005   68.7688 C   0  0  0  0  0  0  0  0  0  0  0  0
  -51.1962   -2.5329   67.8268 C   0  0  0  0  0  0  0  0  0  0  0  0
  -52.2858    0.6391   67.3236 H   0  0  0  0  0  0  0  0  0  0  0  0
  -50.6320    1.2476   68.9431 H   0  0  0  0  0  0  0  0  0  0  0  0
  -54.6791   -2.3237   70.5569 C   0  0  0  0  0  0  0  0  0  0  0  0
  -55.4790   -1.3465   69.6885 C   0  0  0  0  0  0  0  0  0  0  0  0
  -55.9521   -0.1741   70.5578 C   0  0  0  0  0  0  0  0  0  0  0  0
 17 18  1  0  0  0
 18 19  1  0  0  0
 18  1  1  0  0  0
  1  2  1  0  0  0
  2  3  1  0  0  0
  3  4  1  0  0  0
  4  5  2  0  0  0
  4  6  1  0  0  0
  6  7  2  0  0  0
  1  7  1  0  0  0
  7  8  1  0  0  0
  8 10  1  0  0  0
 10 13  1  0  0  0
 13 14  1  0  0  0
  6 14  1  0  0  0
 10 12  1  0  0  0
 10 11  1  0  0  0
  8  9  1  0  0  0
  9 15  1  0  0  0
 12 16  1  0  0  0
M  END
> <minimizedAffinity>
-6.29651

$$$$
ligand_25


 19 20  0  0  0  0  0  0  0  0999 V2000
  -49.3940   -4.1469   74.9025 C   0  0  0  0  0  0  0  0  0  0  0  0
  -50.1759   -4.4623   76.1891 C   0  0  0  0  0  0  0  0  0  0  0  0
  -51.2720   -5.4836   75.9647 C   0  0  0  0  0  0  0  0  0  0  0  0
  -52.1801   -5.0653   74.8344 C   0  0  0  0  0  0  0  0  0  0  0  0
  -53.3393   -5.4754   74.7758 O   0  0  0  0  0  0  0  0  0  0  0  0
  -51.6423   -4.1636   73.7590 C   0  0  0  0  0  0  0  0  0  0  0  0
  -50.3689   -3.7303   73.8045 C   0  0  0  0  0  0  0  0  0  0  0  0
  -49.8466   -2.7470   72.7922 C   0  0  0  0  0  0  0  0  0  0  0  0
  -49.8429   -1.4512   73.4224 O   0  0  0  0  0  0  0  0  0  0  0  0
  -50.6159   -2.6305   71.4416 C   0  0  0  0  0  0  0  0  0  0  0  0
  -49.8860   -3.4172   70.3432 C   0  0  0  0  0  0  0  0  0  0  0  0
  -50.5742   -1.2538   70.9994 O   0  0  0  0  0  0  0  0  0  0  0  0
  -52.1014   -3.0322   71.4738 C   0  0  0  0  0  0  0  0  0  0  0  0
  -52.6250   -3.7872   72.6956 C   0  0  0  0  0  0  0  0  0  0  0  0
  -50.6021   -1.4150   74.0308 H   0  0  0  0  0  0  0  0  0  0  0  0
  -50.2349   -0.7416   71.7637 H   0  0  0  0  0  0  0  0  0  0  0  0
  -47.1682   -4.6585   73.6726 C   0  0  0  0  0  0  0  0  0  0  0  0
  -48.3692   -5.2342   74.4307 C   0  0  0  0  0  0  0  0  0  0  0  0
  -47.8641   -6.1847   75.5241 C   0  0  0  0  0  0  0  0  0  0  0  0
 17 18  1  0  0  0
 18 19  1  0  0  0
 18  1  1  0  0  0
  1  2  1  0  0  0
  2  3  1  0  0  0
  3  4  1  0  0  0
  4  5  2  0  0  0
  4  6  1  0  0  0
  6  7  2  0  0  0
  1  7  1  0  0  0
  7  8  1  0  0  0
  8 10  1  0  0  0
 10 13  1  0  0  0
 13 14  1  0  0  0
  6 14  1  0  0  0
 10 12  1  0  0  0
 10 11  1  0  0  0
  8  9  1  0  0  0
  9 15  1  0  0  0
 12 16  1  0  0  0
M  END
> <minimizedAffinity>
-6.20913

$$$$
ligand_25


 19 20  0  0  0  0  0  0  0  0999 V2000
  -53.0075   -3.2776   71.5558 C   0  0  0  0  0  0  0  0  0  0  0  0
  -51.8899   -3.7275   72.5120 C   0  0  0  0  0  0  0  0  0  0  0  0
  -50.7844   -2.6990   72.6352 C   0  0  0  0  0  0  0  0  0  0  0  0
  -50.2508   -2.3111   71.2779 C   0  0  0  0  0  0  0  0  0  0  0  0
  -49.1087   -1.8686   71.1554 O   0  0  0  0  0  0  0  0  0  0  0  0
  -51.1436   -2.4416   70.0759 C   0  0  0  0  0  0  0  0  0  0  0  0
  -52.4013   -2.9027   70.2061 C   0  0  0  0  0  0  0  0  0  0  0  0
  -53.2718   -3.1351   69.0008 C   0  0  0  0  0  0  0  0  0  0  0  0
  -53.2537   -4.5504   68.7312 O   0  0  0  0  0  0  0  0  0  0  0  0
  -52.8955   -2.3835   67.6881 C   0  0  0  0  0  0  0  0  0  0  0  0
  -53.7943   -1.1522   67.5029 C   0  0  0  0  0  0  0  0  0  0  0  0
  -53.2001   -3.2361   66.5600 O   0  0  0  0  0  0  0  0  0  0  0  0
  -51.4175   -1.9793   67.5413 C   0  0  0  0  0  0  0  0  0  0  0  0
  -50.5166   -2.0542   68.7741 C   0  0  0  0  0  0  0  0  0  0  0  0
  -52.3717   -4.8866   68.9694 H   0  0  0  0  0  0  0  0  0  0  0  0
  -53.3840   -4.1211   66.9403 H   0  0  0  0  0  0  0  0  0  0  0  0
  -54.1395   -2.2106   73.6316 C   0  0  0  0  0  0  0  0  0  0  0  0
  -53.9944   -2.1920   72.1060 C   0  0  0  0  0  0  0  0  0  0  0  0
  -53.7193   -0.7547   71.6453 C   0  0  0  0  0  0  0  0  0  0  0  0
 17 18  1  0  0  0
 18 19  1  0  0  0
 18  1  1  0  0  0
  1  2  1  0  0  0
  2  3  1  0  0  0
  3  4  1  0  0  0
  4  5  2  0  0  0
  4  6  1  0  0  0
  6  7  2  0  0  0
  1  7  1  0  0  0
  7  8  1  0  0  0
  8 10  1  0  0  0
 10 13  1  0  0  0
 13 14  1  0  0  0
  6 14  1  0  0  0
 10 12  1  0  0  0
 10 11  1  0  0  0
  8  9  1  0  0  0
  9 15  1  0  0  0
 12 16  1  0  0  0
M  END
> <minimizedAffinity>
-6.17973

$$$$
