ligand_27


 19 20  0  0  0  0  0  0  0  0999 V2000
  -48.9702   -4.8182   78.4777 C   0  0  0  0  0  0  0  0  0  0  0  0
  -49.8443   -4.1566   77.4193 C   0  0  0  0  0  0  0  0  0  0  0  0
  -49.9060   -5.2266   76.3543 C   0  0  0  0  0  0  0  0  0  0  0  0
  -50.9529   -6.1479   76.6765 O   0  0  0  0  0  0  0  0  0  0  0  0
  -48.5300   -5.8930   76.4448 C   0  0  0  0  0  0  0  0  0  0  0  0
  -48.0366   -5.6635   77.7812 O   0  0  0  0  0  0  0  0  0  0  0  0
  -50.6822   -6.7009   77.4304 H   0  0  0  0  0  0  0  0  0  0  0  0
  -46.3230   -1.2458   81.6557 O   0  0  0  0  0  0  0  0  0  0  0  0
  -46.9088   -2.0663   80.9582 C   0  0  0  0  0  0  0  0  0  0  0  0
  -46.2173   -2.7633   79.8650 C   0  0  0  0  0  0  0  0  0  0  0  0
  -46.9039   -3.6316   79.1196 C   0  0  0  0  0  0  0  0  0  0  0  0
  -48.2465   -3.8843   79.3310 N   0  0  0  0  0  0  0  0  0  0  0  0
  -48.9482   -3.2604   80.3569 C   0  0  0  0  0  0  0  0  0  0  0  0
  -50.1425   -3.4329   80.5881 O   0  0  0  0  0  0  0  0  0  0  0  0
  -48.2215   -2.3904   81.1294 N   0  0  0  0  0  0  0  0  0  0  0  0
  -48.7149   -1.9324   81.8794 H   0  0  0  0  0  0  0  0  0  0  0  0
  -47.5092   -5.3241   75.4567 C   0  0  0  0  0  0  0  0  0  0  0  0
  -48.1358   -4.7560   74.3164 O   0  0  0  0  0  0  0  0  0  0  0  0
  -48.5433   -5.4799   73.8084 H   0  0  0  0  0  0  0  0  0  0  0  0
  8  9  2  0  0  0
  9 10  1  0  0  0
 10 11  2  0  0  0
 11 12  1  0  0  0
 12  1  1  0  0  0
  1  2  1  0  0  0
  2  3  1  0  0  0
  3  4  1  0  0  0
  3  5  1  0  0  0
  5 17  1  0  0  0
 17 18  1  0  0  0
  5  6  1  0  0  0
  1  6  1  0  0  0
 12 13  1  0  0  0
 13 14  2  0  0  0
 13 15  1  0  0  0
  9 15  1  0  0  0
  4  7  1  0  0  0
 18 19  1  0  0  0
 15 16  1  0  0  0
M  END
> <minimizedAffinity>
-6.25541

$$$$
ligand_27


 19 20  0  0  0  0  0  0  0  0999 V2000
  -50.5222   -3.6884   75.0268 C   0  0  0  0  0  0  0  0  0  0  0  0
  -49.5614   -3.8421   73.8541 C   0  0  0  0  0  0  0  0  0  0  0  0
  -50.1014   -2.8256   72.8752 C   0  0  0  0  0  0  0  0  0  0  0  0
  -49.5538   -1.5401   73.1855 O   0  0  0  0  0  0  0  0  0  0  0  0
  -51.6117   -2.8632   73.1259 C   0  0  0  0  0  0  0  0  0  0  0  0
  -51.8043   -3.3381   74.4748 O   0  0  0  0  0  0  0  0  0  0  0  0
  -49.9630   -1.1975   73.9995 H   0  0  0  0  0  0  0  0  0  0  0  0
  -50.9146   -8.1650   78.1373 O   0  0  0  0  0  0  0  0  0  0  0  0
  -50.8467   -7.1506   77.4522 C   0  0  0  0  0  0  0  0  0  0  0  0
  -51.6464   -7.0079   76.2278 C   0  0  0  0  0  0  0  0  0  0  0  0
  -51.5213   -5.8938   75.5039 C   0  0  0  0  0  0  0  0  0  0  0  0
  -50.6530   -4.8781   75.8583 N   0  0  0  0  0  0  0  0  0  0  0  0
  -49.8793   -4.9561   77.0114 C   0  0  0  0  0  0  0  0  0  0  0  0
  -49.0818   -4.0944   77.3737 O   0  0  0  0  0  0  0  0  0  0  0  0
  -50.0389   -6.0962   77.7573 N   0  0  0  0  0  0  0  0  0  0  0  0
  -49.4876   -6.1665   78.5980 H   0  0  0  0  0  0  0  0  0  0  0  0
  -52.3653   -3.8005   72.1796 C   0  0  0  0  0  0  0  0  0  0  0  0
  -53.3962   -4.5114   72.8484 O   0  0  0  0  0  0  0  0  0  0  0  0
  -52.9758   -5.1308   73.4713 H   0  0  0  0  0  0  0  0  0  0  0  0
  8  9  2  0  0  0
  9 10  1  0  0  0
 10 11  2  0  0  0
 11 12  1  0  0  0
 12  1  1  0  0  0
  1  2  1  0  0  0
  2  3  1  0  0  0
  3  4  1  0  0  0
  3  5  1  0  0  0
  5 17  1  0  0  0
 17 18  1  0  0  0
  5  6  1  0  0  0
  1  6  1  0  0  0
 12 13  1  0  0  0
 13 14  2  0  0  0
 13 15  1  0  0  0
  9 15  1  0  0  0
  4  7  1  0  0  0
 18 19  1  0  0  0
 15 16  1  0  0  0
M  END
> <minimizedAffinity>
-6.24167

$$$$
ligand_27


 19 20  0  0  0  0  0  0  0  0999 V2000
  -47.8615   -1.6349   81.3351 C   0  0  0  0  0  0  0  0  0  0  0  0
  -46.4374   -1.1954   81.6524 C   0  0  0  0  0  0  0  0  0  0  0  0
  -46.6519    0.2136   82.1542 C   0  0  0  0  0  0  0  0  0  0  0  0
  -46.9739    0.1701   83.5482 O   0  0  0  0  0  0  0  0  0  0  0  0
  -47.8401    0.7062   81.3230 C   0  0  0  0  0  0  0  0  0  0  0  0
  -48.5755   -0.4622   80.9033 O   0  0  0  0  0  0  0  0  0  0  0  0
  -47.8781   -0.1708   83.6651 H   0  0  0  0  0  0  0  0  0  0  0  0
  -48.2573   -5.5915   77.5859 O   0  0  0  0  0  0  0  0  0  0  0  0
  -48.1739   -4.6865   78.4086 C   0  0  0  0  0  0  0  0  0  0  0  0
  -46.9128   -3.9605   78.6117 C   0  0  0  0  0  0  0  0  0  0  0  0
  -46.8661   -2.9978   79.5347 C   0  0  0  0  0  0  0  0  0  0  0  0
  -47.9588   -2.6729   80.3168 N   0  0  0  0  0  0  0  0  0  0  0  0
  -49.1795   -3.3209   80.1607 C   0  0  0  0  0  0  0  0  0  0  0  0
  -50.1821   -3.0870   80.8314 O   0  0  0  0  0  0  0  0  0  0  0  0
  -49.2174   -4.2898   79.1904 N   0  0  0  0  0  0  0  0  0  0  0  0
  -50.0960   -4.7665   79.0626 H   0  0  0  0  0  0  0  0  0  0  0  0
  -47.4294    1.4847   80.0711 C   0  0  0  0  0  0  0  0  0  0  0  0
  -46.8209    2.7258   80.3952 O   0  0  0  0  0  0  0  0  0  0  0  0
  -47.5032    3.2989   80.7881 H   0  0  0  0  0  0  0  0  0  0  0  0
  8  9  2  0  0  0
  9 10  1  0  0  0
 10 11  2  0  0  0
 11 12  1  0  0  0
 12  1  1  0  0  0
  1  2  1  0  0  0
  2  3  1  0  0  0
  3  4  1  0  0  0
  3  5  1  0  0  0
  5 17  1  0  0  0
 17 18  1  0  0  0
  5  6  1  0  0  0
  1  6  1  0  0  0
 12 13  1  0  0  0
 13 14  2  0  0  0
 13 15  1  0  0  0
  9 15  1  0  0  0
  4  7  1  0  0  0
 18 19  1  0  0  0
 15 16  1  0  0  0
M  END
> <minimizedAffinity>
-6.14979

$$$$
ligand_27


 19 20  0  0  0  0  0  0  0  0999 V2000
  -52.3586   -2.1113   71.0923 C   0  0  0  0  0  0  0  0  0  0  0  0
  -52.1216   -3.6152   71.0294 C   0  0  0  0  0  0  0  0  0  0  0  0
  -52.4054   -4.0340   72.4531 C   0  0  0  0  0  0  0  0  0  0  0  0
  -53.8134   -4.2388   72.6090 O   0  0  0  0  0  0  0  0  0  0  0  0
  -51.9223   -2.8358   73.2755 C   0  0  0  0  0  0  0  0  0  0  0  0
  -51.9746   -1.6816   72.4111 O   0  0  0  0  0  0  0  0  0  0  0  0
  -54.2713   -3.3799   72.6104 H   0  0  0  0  0  0  0  0  0  0  0  0
  -49.6851    0.7441   67.2756 O   0  0  0  0  0  0  0  0  0  0  0  0
  -50.2754    0.1196   68.1498 C   0  0  0  0  0  0  0  0  0  0  0  0
  -49.6130   -0.9676   68.8834 C   0  0  0  0  0  0  0  0  0  0  0  0
  -50.3046   -1.6325   69.8110 C   0  0  0  0  0  0  0  0  0  0  0  0
  -51.6269   -1.3439   70.0924 N   0  0  0  0  0  0  0  0  0  0  0  0
  -52.3003   -0.3195   69.4355 C   0  0  0  0  0  0  0  0  0  0  0  0
  -53.4764   -0.0224   69.6314 O   0  0  0  0  0  0  0  0  0  0  0  0
  -51.5674    0.3705   68.5036 N   0  0  0  0  0  0  0  0  0  0  0  0
  -52.0402    1.1183   68.0210 H   0  0  0  0  0  0  0  0  0  0  0  0
  -50.4870   -2.9833   73.7855 C   0  0  0  0  0  0  0  0  0  0  0  0
  -49.6676   -1.8962   73.3827 O   0  0  0  0  0  0  0  0  0  0  0  0
  -49.5566   -1.9482   72.4167 H   0  0  0  0  0  0  0  0  0  0  0  0
  8  9  2  0  0  0
  9 10  1  0  0  0
 10 11  2  0  0  0
 11 12  1  0  0  0
 12  1  1  0  0  0
  1  2  1  0  0  0
  2  3  1  0  0  0
  3  4  1  0  0  0
  3  5  1  0  0  0
  5 17  1  0  0  0
 17 18  1  0  0  0
  5  6  1  0  0  0
  1  6  1  0  0  0
 12 13  1  0  0  0
 13 14  2  0  0  0
 13 15  1  0  0  0
  9 15  1  0  0  0
  4  7  1  0  0  0
 18 19  1  0  0  0
 15 16  1  0  0  0
M  END
> <minimizedAffinity>
-6.12846

$$$$
ligand_27


 19 20  0  0  0  0  0  0  0  0999 V2000
  -54.1825    6.8185   76.2568 C   0  0  0  0  0  0  0  0  0  0  0  0
  -55.4227    7.4627   76.8642 C   0  0  0  0  0  0  0  0  0  0  0  0
  -55.0941    7.4393   78.3388 C   0  0  0  0  0  0  0  0  0  0  0  0
  -54.3089    8.5916   78.6617 O   0  0  0  0  0  0  0  0  0  0  0  0
  -54.2833    6.1499   78.4984 C   0  0  0  0  0  0  0  0  0  0  0  0
  -53.7006    5.8554   77.2116 O   0  0  0  0  0  0  0  0  0  0  0  0
  -53.4094    8.4855   78.3052 H   0  0  0  0  0  0  0  0  0  0  0  0
  -55.1067    4.4410   71.4234 O   0  0  0  0  0  0  0  0  0  0  0  0
  -54.8744    4.9677   72.5057 C   0  0  0  0  0  0  0  0  0  0  0  0
  -54.9036    4.1873   73.7504 C   0  0  0  0  0  0  0  0  0  0  0  0
  -54.6655    4.8105   74.9061 C   0  0  0  0  0  0  0  0  0  0  0  0
  -54.4093    6.1673   74.9729 N   0  0  0  0  0  0  0  0  0  0  0  0
  -54.3603    6.9524   73.8259 C   0  0  0  0  0  0  0  0  0  0  0  0
  -54.1500    8.1630   73.8199 O   0  0  0  0  0  0  0  0  0  0  0  0
  -54.5819    6.2916   72.6445 N   0  0  0  0  0  0  0  0  0  0  0  0
  -54.5465    6.8460   71.8036 H   0  0  0  0  0  0  0  0  0  0  0  0
  -55.1267    4.9464   78.9253 C   0  0  0  0  0  0  0  0  0  0  0  0
  -54.5806    4.2935   80.0615 O   0  0  0  0  0  0  0  0  0  0  0  0
  -53.7406    3.8804   79.7931 H   0  0  0  0  0  0  0  0  0  0  0  0
  8  9  2  0  0  0
  9 10  1  0  0  0
 10 11  2  0  0  0
 11 12  1  0  0  0
 12  1  1  0  0  0
  1  2  1  0  0  0
  2  3  1  0  0  0
  3  4  1  0  0  0
  3  5  1  0  0  0
  5 17  1  0  0  0
 17 18  1  0  0  0
  5  6  1  0  0  0
  1  6  1  0  0  0
 12 13  1  0  0  0
 13 14  2  0  0  0
 13 15  1  0  0  0
  9 15  1  0  0  0
  4  7  1  0  0  0
 18 19  1  0  0  0
 15 16  1  0  0  0
M  END
> <minimizedAffinity>
-5.89551

$$$$
