ligand_18


 28 31  0  0  0  0  0  0  0  0999 V2000
  -50.9468   -3.0069   70.2544 C   0  0  0  0  0  0  0  0  0  0  0  0
  -52.3054   -3.0628   69.5312 C   0  0  0  0  0  0  0  0  0  0  0  0
  -52.5072   -3.4867   68.2093 C   0  0  0  0  0  0  0  0  0  0  0  0
  -53.7611   -3.2941   67.5830 C   0  0  0  0  0  0  0  0  0  0  0  0
  -53.8162   -3.4546   66.2258 O   0  0  0  0  0  0  0  0  0  0  0  0
  -54.8679   -2.8490   68.3070 C   0  0  0  0  0  0  0  0  0  0  0  0
  -54.6386   -2.3471   69.5829 C   0  0  0  0  0  0  0  0  0  0  0  0
  -53.3302   -2.2766   70.0696 C   0  0  0  0  0  0  0  0  0  0  0  0
  -52.8747   -1.0511   70.8394 C   0  0  0  0  0  0  0  0  0  0  0  0
  -51.5592   -0.5162   70.1916 C   0  0  0  0  0  0  0  0  0  0  0  0
  -51.7998   -0.0931   68.7510 C   0  0  0  0  0  0  0  0  0  0  0  0
  -52.7152    0.6060   68.3574 O   0  0  0  0  0  0  0  0  0  0  0  0
  -50.8410   -0.5997   67.9182 O   0  0  0  0  0  0  0  0  0  0  0  0
  -49.8296   -1.2343   68.6790 C   0  0  0  0  0  0  0  0  0  0  0  0
  -50.4304   -1.5536   70.0283 C   0  0  0  0  0  0  0  0  0  0  0  0
  -53.3728   -2.6606   65.8660 H   0  0  0  0  0  0  0  0  0  0  0  0
  -52.0640   -4.2462   73.8369 C   0  0  0  0  0  0  0  0  0  0  0  0
  -52.0134   -4.0607   72.4231 C   0  0  0  0  0  0  0  0  0  0  0  0
  -50.9900   -3.3097   71.8066 C   0  0  0  0  0  0  0  0  0  0  0  0
  -49.9976   -2.8057   72.6819 C   0  0  0  0  0  0  0  0  0  0  0  0
  -50.0272   -2.9850   74.0619 C   0  0  0  0  0  0  0  0  0  0  0  0
  -51.0548   -3.7020   74.6424 C   0  0  0  0  0  0  0  0  0  0  0  0
  -51.0232   -3.8432   76.0017 O   0  0  0  0  0  0  0  0  0  0  0  0
  -50.2497   -3.3768   76.3586 H   0  0  0  0  0  0  0  0  0  0  0  0
  -54.3431   -4.2379   74.5668 C   0  0  0  0  0  0  0  0  0  0  0  0
  -53.1487   -4.9659   74.2808 O   0  0  0  0  0  0  0  0  0  0  0  0
  -56.1780   -2.7997   67.9285 O   0  0  0  0  0  0  0  0  0  0  0  0
  -56.6297   -1.6603   67.2146 C   0  0  0  0  0  0  0  0  0  0  0  0
 25 26  1  0  0  0
 26 17  1  0  0  0
 17 18  2  0  0  0
 18 19  1  0  0  0
  1  2  1  0  0  0
  2  3  2  0  0  0
  3  4  1  0  0  0
  4  5  1  0  0  0
  4  6  2  0  0  0
  6 27  1  0  0  0
 27 28  1  0  0  0
  6  7  1  0  0  0
  7  8  2  0  0  0
  2  8  1  0  0  0
  8  9  1  0  0  0
  9 10  1  0  0  0
 10 11  1  0  0  0
 11 12  2  0  0  0
 11 13  1  0  0  0
 13 14  1  0  0  0
 14 15  1  0  0  0
  1 15  1  0  0  0
 10 15  1  0  0  0
 19 20  2  0  0  0
 20 21  1  0  0  0
 21 22  2  0  0  0
 17 22  1  0  0  0
 22 23  1  0  0  0
  1 19  1  0  0  0
  5 16  1  0  0  0
 23 24  1  0  0  0
M  END
> <minimizedAffinity>
-8.36101

$$$$
ligand_18


 28 31  0  0  0  0  0  0  0  0999 V2000
  -52.1026   -2.9145   70.5148 C   0  0  0  0  0  0  0  0  0  0  0  0
  -52.8958   -1.6143   70.2859 C   0  0  0  0  0  0  0  0  0  0  0  0
  -53.9417   -1.4500   69.3656 C   0  0  0  0  0  0  0  0  0  0  0  0
  -54.4524   -0.1596   69.0905 C   0  0  0  0  0  0  0  0  0  0  0  0
  -55.2547   -0.0233   67.9912 O   0  0  0  0  0  0  0  0  0  0  0  0
  -54.0609    0.9468   69.8454 C   0  0  0  0  0  0  0  0  0  0  0  0
  -52.9647    0.7927   70.6861 C   0  0  0  0  0  0  0  0  0  0  0  0
  -52.2881   -0.4300   70.7173 C   0  0  0  0  0  0  0  0  0  0  0  0
  -50.7716   -0.4542   70.7597 C   0  0  0  0  0  0  0  0  0  0  0  0
  -50.2558   -1.3788   69.6127 C   0  0  0  0  0  0  0  0  0  0  0  0
  -50.6709   -0.8367   68.2541 C   0  0  0  0  0  0  0  0  0  0  0  0
  -50.5518    0.3156   67.8803 O   0  0  0  0  0  0  0  0  0  0  0  0
  -51.2090   -1.8197   67.4707 O   0  0  0  0  0  0  0  0  0  0  0  0
  -51.0698   -3.0749   68.1108 C   0  0  0  0  0  0  0  0  0  0  0  0
  -50.8599   -2.7969   69.5812 C   0  0  0  0  0  0  0  0  0  0  0  0
  -54.6423   -0.0808   67.2309 H   0  0  0  0  0  0  0  0  0  0  0  0
  -49.9117   -3.8161   73.6779 C   0  0  0  0  0  0  0  0  0  0  0  0
  -50.2948   -3.5215   72.3355 C   0  0  0  0  0  0  0  0  0  0  0  0
  -51.6177   -3.1624   72.0002 C   0  0  0  0  0  0  0  0  0  0  0  0
  -52.5137   -3.0643   73.0922 C   0  0  0  0  0  0  0  0  0  0  0  0
  -52.1542   -3.3396   74.4084 C   0  0  0  0  0  0  0  0  0  0  0  0
  -50.8589   -3.7147   74.7055 C   0  0  0  0  0  0  0  0  0  0  0  0
  -50.5711   -3.9684   76.0175 O   0  0  0  0  0  0  0  0  0  0  0  0
  -51.3726   -3.8528   76.5539 H   0  0  0  0  0  0  0  0  0  0  0  0
  -47.6543   -3.6555   72.8995 C   0  0  0  0  0  0  0  0  0  0  0  0
  -48.5971   -4.1913   73.8283 O   0  0  0  0  0  0  0  0  0  0  0  0
  -54.5870    2.2058   69.8598 O   0  0  0  0  0  0  0  0  0  0  0  0
  -54.0455    3.1510   70.7682 C   0  0  0  0  0  0  0  0  0  0  0  0
 25 26  1  0  0  0
 26 17  1  0  0  0
 17 18  2  0  0  0
 18 19  1  0  0  0
  1  2  1  0  0  0
  2  3  2  0  0  0
  3  4  1  0  0  0
  4  5  1  0  0  0
  4  6  2  0  0  0
  6 27  1  0  0  0
 27 28  1  0  0  0
  6  7  1  0  0  0
  7  8  2  0  0  0
  2  8  1  0  0  0
  8  9  1  0  0  0
  9 10  1  0  0  0
 10 11  1  0  0  0
 11 12  2  0  0  0
 11 13  1  0  0  0
 13 14  1  0  0  0
 14 15  1  0  0  0
  1 15  1  0  0  0
 10 15  1  0  0  0
 19 20  2  0  0  0
 20 21  1  0  0  0
 21 22  2  0  0  0
 17 22  1  0  0  0
 22 23  1  0  0  0
  1 19  1  0  0  0
  5 16  1  0  0  0
 23 24  1  0  0  0
M  END
> <minimizedAffinity>
-7.90217

$$$$
ligand_18


 28 31  0  0  0  0  0  0  0  0999 V2000
  -52.3672   -2.6889   70.1637 C   0  0  0  0  0  0  0  0  0  0  0  0
  -53.0102   -1.3014   69.9811 C   0  0  0  0  0  0  0  0  0  0  0  0
  -53.9386   -0.9588   68.9869 C   0  0  0  0  0  0  0  0  0  0  0  0
  -54.2980    0.3944   68.7836 C   0  0  0  0  0  0  0  0  0  0  0  0
  -54.9696    0.6994   67.6319 O   0  0  0  0  0  0  0  0  0  0  0  0
  -53.8843    1.3910   69.6685 C   0  0  0  0  0  0  0  0  0  0  0  0
  -52.8971    1.0599   70.5895 C   0  0  0  0  0  0  0  0  0  0  0  0
  -52.3426   -0.2230   70.5723 C   0  0  0  0  0  0  0  0  0  0  0  0
  -50.8468   -0.4027   70.7521 C   0  0  0  0  0  0  0  0  0  0  0  0
  -50.3055   -1.2783   69.5787 C   0  0  0  0  0  0  0  0  0  0  0  0
  -50.5300   -0.5888   68.2422 C   0  0  0  0  0  0  0  0  0  0  0  0
  -50.2683    0.5722   67.9868 O   0  0  0  0  0  0  0  0  0  0  0  0
  -51.0747   -1.4460   67.3267 O   0  0  0  0  0  0  0  0  0  0  0  0
  -51.1168   -2.7566   67.8607 C   0  0  0  0  0  0  0  0  0  0  0  0
  -51.0313   -2.6213   69.3634 C   0  0  0  0  0  0  0  0  0  0  0  0
  -54.2917    0.6425   66.9293 H   0  0  0  0  0  0  0  0  0  0  0  0
  -52.7179   -3.4633   74.0232 C   0  0  0  0  0  0  0  0  0  0  0  0
  -53.0448   -3.1632   72.6672 C   0  0  0  0  0  0  0  0  0  0  0  0
  -52.0592   -3.1040   71.6590 C   0  0  0  0  0  0  0  0  0  0  0  0
  -50.7434   -3.4152   72.0795 C   0  0  0  0  0  0  0  0  0  0  0  0
  -50.4090   -3.7185   73.3961 C   0  0  0  0  0  0  0  0  0  0  0  0
  -51.3891   -3.7437   74.3685 C   0  0  0  0  0  0  0  0  0  0  0  0
  -50.9944   -4.0509   75.6406 O   0  0  0  0  0  0  0  0  0  0  0  0
  -50.0337   -4.1932   75.6570 H   0  0  0  0  0  0  0  0  0  0  0  0
  -54.7725   -2.4267   74.6802 C   0  0  0  0  0  0  0  0  0  0  0  0
  -53.7869   -3.4385   74.8882 O   0  0  0  0  0  0  0  0  0  0  0  0
  -54.2910    2.6911   69.7481 O   0  0  0  0  0  0  0  0  0  0  0  0
  -53.6530    3.5394   70.6891 C   0  0  0  0  0  0  0  0  0  0  0  0
 25 26  1  0  0  0
 26 17  1  0  0  0
 17 18  2  0  0  0
 18 19  1  0  0  0
  1  2  1  0  0  0
  2  3  2  0  0  0
  3  4  1  0  0  0
  4  5  1  0  0  0
  4  6  2  0  0  0
  6 27  1  0  0  0
 27 28  1  0  0  0
  6  7  1  0  0  0
  7  8  2  0  0  0
  2  8  1  0  0  0
  8  9  1  0  0  0
  9 10  1  0  0  0
 10 11  1  0  0  0
 11 12  2  0  0  0
 11 13  1  0  0  0
 13 14  1  0  0  0
 14 15  1  0  0  0
  1 15  1  0  0  0
 10 15  1  0  0  0
 19 20  2  0  0  0
 20 21  1  0  0  0
 21 22  2  0  0  0
 17 22  1  0  0  0
 22 23  1  0  0  0
  1 19  1  0  0  0
  5 16  1  0  0  0
 23 24  1  0  0  0
M  END
> <minimizedAffinity>
-7.61218

$$$$
ligand_18


 28 31  0  0  0  0  0  0  0  0999 V2000
  -53.8600   -0.7627   72.2250 C   0  0  0  0  0  0  0  0  0  0  0  0
  -53.2057   -1.2701   70.9264 C   0  0  0  0  0  0  0  0  0  0  0  0
  -52.2100   -0.5997   70.2006 C   0  0  0  0  0  0  0  0  0  0  0  0
  -51.8373   -1.0556   68.9141 C   0  0  0  0  0  0  0  0  0  0  0  0
  -51.0866   -0.2121   68.1423 O   0  0  0  0  0  0  0  0  0  0  0  0
  -52.3119   -2.2686   68.4135 C   0  0  0  0  0  0  0  0  0  0  0  0
  -53.3611   -2.8755   69.0941 C   0  0  0  0  0  0  0  0  0  0  0  0
  -53.9131   -2.2434   70.2119 C   0  0  0  0  0  0  0  0  0  0  0  0
  -55.4179   -2.2284   70.4059 C   0  0  0  0  0  0  0  0  0  0  0  0
  -55.8757   -0.7542   70.6377 C   0  0  0  0  0  0  0  0  0  0  0  0
  -55.5581    0.1069   69.4254 C   0  0  0  0  0  0  0  0  0  0  0  0
  -55.8013   -0.1767   68.2668 O   0  0  0  0  0  0  0  0  0  0  0  0
  -54.9507    1.2757   69.7921 O   0  0  0  0  0  0  0  0  0  0  0  0
  -54.9461    1.3932   71.2030 C   0  0  0  0  0  0  0  0  0  0  0  0
  -55.1366    0.0014   71.7601 C   0  0  0  0  0  0  0  0  0  0  0  0
  -51.7138    0.4805   67.8534 H   0  0  0  0  0  0  0  0  0  0  0  0
  -54.0103   -4.1188   74.3064 C   0  0  0  0  0  0  0  0  0  0  0  0
  -53.5640   -3.0949   73.4186 C   0  0  0  0  0  0  0  0  0  0  0  0
  -54.2720   -1.8842   73.2620 C   0  0  0  0  0  0  0  0  0  0  0  0
  -55.4160   -1.7412   74.0841 C   0  0  0  0  0  0  0  0  0  0  0  0
  -55.8599   -2.7263   74.9615 C   0  0  0  0  0  0  0  0  0  0  0  0
  -55.1630   -3.9129   75.0759 C   0  0  0  0  0  0  0  0  0  0  0  0
  -55.6507   -4.8372   75.9571 O   0  0  0  0  0  0  0  0  0  0  0  0
  -56.4613   -4.4964   76.3695 H   0  0  0  0  0  0  0  0  0  0  0  0
  -52.1198   -5.2796   75.2042 C   0  0  0  0  0  0  0  0  0  0  0  0
  -53.2317   -5.2527   74.3091 O   0  0  0  0  0  0  0  0  0  0  0  0
  -51.9117   -2.9548   67.3040 O   0  0  0  0  0  0  0  0  0  0  0  0
  -52.8787   -3.7153   66.5980 C   0  0  0  0  0  0  0  0  0  0  0  0
 25 26  1  0  0  0
 26 17  1  0  0  0
 17 18  2  0  0  0
 18 19  1  0  0  0
  1  2  1  0  0  0
  2  3  2  0  0  0
  3  4  1  0  0  0
  4  5  1  0  0  0
  4  6  2  0  0  0
  6 27  1  0  0  0
 27 28  1  0  0  0
  6  7  1  0  0  0
  7  8  2  0  0  0
  2  8  1  0  0  0
  8  9  1  0  0  0
  9 10  1  0  0  0
 10 11  1  0  0  0
 11 12  2  0  0  0
 11 13  1  0  0  0
 13 14  1  0  0  0
 14 15  1  0  0  0
  1 15  1  0  0  0
 10 15  1  0  0  0
 19 20  2  0  0  0
 20 21  1  0  0  0
 21 22  2  0  0  0
 17 22  1  0  0  0
 22 23  1  0  0  0
  1 19  1  0  0  0
  5 16  1  0  0  0
 23 24  1  0  0  0
M  END
> <minimizedAffinity>
-7.22311

$$$$
ligand_18


 28 31  0  0  0  0  0  0  0  0999 V2000
  -51.9423    0.2244   69.5586 C   0  0  0  0  0  0  0  0  0  0  0  0
  -51.7655   -0.7089   70.7709 C   0  0  0  0  0  0  0  0  0  0  0  0
  -50.5772   -1.3630   71.1284 C   0  0  0  0  0  0  0  0  0  0  0  0
  -50.5869   -2.3596   72.1325 C   0  0  0  0  0  0  0  0  0  0  0  0
  -49.4809   -3.1575   72.2357 O   0  0  0  0  0  0  0  0  0  0  0  0
  -51.7234   -2.5899   72.9089 C   0  0  0  0  0  0  0  0  0  0  0  0
  -52.9139   -2.0074   72.4896 C   0  0  0  0  0  0  0  0  0  0  0  0
  -52.9346   -1.2564   71.3110 C   0  0  0  0  0  0  0  0  0  0  0  0
  -54.0937   -1.4008   70.3426 C   0  0  0  0  0  0  0  0  0  0  0  0
  -53.5213   -1.6945   68.9205 C   0  0  0  0  0  0  0  0  0  0  0  0
  -52.7456   -3.0023   68.9101 C   0  0  0  0  0  0  0  0  0  0  0  0
  -53.1248   -4.0591   69.3803 O   0  0  0  0  0  0  0  0  0  0  0  0
  -51.5349   -2.8565   68.2915 O   0  0  0  0  0  0  0  0  0  0  0  0
  -51.4431   -1.5680   67.7121 C   0  0  0  0  0  0  0  0  0  0  0  0
  -52.4600   -0.6977   68.4135 C   0  0  0  0  0  0  0  0  0  0  0  0
  -49.5365   -3.7560   71.4642 H   0  0  0  0  0  0  0  0  0  0  0  0
  -54.0368    3.1785   71.1414 C   0  0  0  0  0  0  0  0  0  0  0  0
  -53.0551    2.1586   70.9631 C   0  0  0  0  0  0  0  0  0  0  0  0
  -52.9568    1.4209   69.7640 C   0  0  0  0  0  0  0  0  0  0  0  0
  -53.8603    1.8024   68.7427 C   0  0  0  0  0  0  0  0  0  0  0  0
  -54.8178    2.8007   68.8972 C   0  0  0  0  0  0  0  0  0  0  0  0
  -54.9100    3.4893   70.0905 C   0  0  0  0  0  0  0  0  0  0  0  0
  -55.8699    4.4588   70.1758 O   0  0  0  0  0  0  0  0  0  0  0  0
  -56.3685    4.4960   69.3432 H   0  0  0  0  0  0  0  0  0  0  0  0
  -54.8493    3.1864   73.3925 C   0  0  0  0  0  0  0  0  0  0  0  0
  -54.0268    3.7711   72.3826 O   0  0  0  0  0  0  0  0  0  0  0  0
  -51.8546   -3.3505   74.0341 O   0  0  0  0  0  0  0  0  0  0  0  0
  -52.8453   -4.3655   74.0485 C   0  0  0  0  0  0  0  0  0  0  0  0
 25 26  1  0  0  0
 26 17  1  0  0  0
 17 18  2  0  0  0
 18 19  1  0  0  0
  1  2  1  0  0  0
  2  3  2  0  0  0
  3  4  1  0  0  0
  4  5  1  0  0  0
  4  6  2  0  0  0
  6 27  1  0  0  0
 27 28  1  0  0  0
  6  7  1  0  0  0
  7  8  2  0  0  0
  2  8  1  0  0  0
  8  9  1  0  0  0
  9 10  1  0  0  0
 10 11  1  0  0  0
 11 12  2  0  0  0
 11 13  1  0  0  0
 13 14  1  0  0  0
 14 15  1  0  0  0
  1 15  1  0  0  0
 10 15  1  0  0  0
 19 20  2  0  0  0
 20 21  1  0  0  0
 21 22  2  0  0  0
 17 22  1  0  0  0
 22 23  1  0  0  0
  1 19  1  0  0  0
  5 16  1  0  0  0
 23 24  1  0  0  0
M  END
> <minimizedAffinity>
-7.14188

$$$$
