ligand_28


 23 25  0  0  0  0  0  0  0  0999 V2000
  -50.9321   -4.2024   74.4647 C   0  0  0  0  0  0  0  0  0  0  0  0
  -49.8363   -3.8349   73.6869 C   0  0  0  0  0  0  0  0  0  0  0  0
  -50.0090   -3.1045   72.5084 C   0  0  0  0  0  0  0  0  0  0  0  0
  -51.2841   -2.7230   72.0352 C   0  0  0  0  0  0  0  0  0  0  0  0
  -52.3899   -3.1130   72.7961 C   0  0  0  0  0  0  0  0  0  0  0  0
  -52.2024   -3.8462   73.9948 C   0  0  0  0  0  0  0  0  0  0  0  0
  -53.7983   -2.8525   72.3619 C   0  0  0  0  0  0  0  0  0  0  0  0
  -53.9654   -1.7119   71.3773 C   0  0  0  0  0  0  0  0  0  0  0  0
  -52.8708   -1.5214   70.3038 C   0  0  0  0  0  0  0  0  0  0  0  0
  -53.3258   -1.8799   68.8473 C   0  0  0  0  0  0  0  0  0  0  0  0
  -54.4127   -0.8393   68.4073 C   0  0  0  0  0  0  0  0  0  0  0  0
  -52.1796   -1.6925   67.8317 C   0  0  0  0  0  0  0  0  0  0  0  0
  -50.8268   -2.2726   68.1941 C   0  0  0  0  0  0  0  0  0  0  0  0
  -50.6557   -2.7301   69.6272 C   0  0  0  0  0  0  0  0  0  0  0  0
  -51.3996   -1.9190   70.7255 C   0  0  0  0  0  0  0  0  0  0  0  0
  -50.6324   -0.5799   70.9493 C   0  0  0  0  0  0  0  0  0  0  0  0
  -53.9742   -3.2614   68.6541 C   0  0  0  0  0  0  0  0  0  0  0  0
  -53.3288   -4.2969   68.5336 O   0  0  0  0  0  0  0  0  0  0  0  0
  -55.3170   -3.3065   68.6609 O   0  0  0  0  0  0  0  0  0  0  0  0
  -55.7850   -2.4581   68.7275 H   0  0  0  0  0  0  0  0  0  0  0  0
  -49.9751   -4.4724   76.7110 C   0  0  0  0  0  0  0  0  0  0  0  0
  -50.7434   -4.9631   75.7223 C   0  0  0  0  0  0  0  0  0  0  0  0
  -51.4428   -6.2859   75.8670 C   0  0  0  0  0  0  0  0  0  0  0  0
 21 22  2  0  0  0
 22 23  1  0  0  0
  1  2  2  0  0  0
  2  3  1  0  0  0
  3  4  2  0  0  0
  4  5  1  0  0  0
  5  6  2  0  0  0
  1  6  1  0  0  0
  5  7  1  0  0  0
  7  8  1  0  0  0
  8  9  1  0  0  0
  9 10  1  0  0  0
 17 18  2  0  0  0
 17 19  1  0  0  0
 10 12  1  0  0  0
 12 13  1  0  0  0
 13 14  1  0  0  0
 14 15  1  0  0  0
  4 15  1  0  0  0
  9 15  1  0  0  0
 22  1  1  0  0  0
 10 11  1  0  0  0
 10 17  1  0  0  0
 15 16  1  0  0  0
 19 20  1  0  0  0
M  END
> <minimizedAffinity>
-7.86409

$$$$
ligand_28


 23 25  0  0  0  0  0  0  0  0999 V2000
  -52.2190   -4.1533   74.3560 C   0  0  0  0  0  0  0  0  0  0  0  0
  -53.3953   -3.4897   74.6975 C   0  0  0  0  0  0  0  0  0  0  0  0
  -54.1262   -2.7891   73.7346 C   0  0  0  0  0  0  0  0  0  0  0  0
  -53.7094   -2.6970   72.3880 C   0  0  0  0  0  0  0  0  0  0  0  0
  -52.5149   -3.3369   72.0447 C   0  0  0  0  0  0  0  0  0  0  0  0
  -51.7862   -4.0523   73.0279 C   0  0  0  0  0  0  0  0  0  0  0  0
  -51.9151   -3.2422   70.6768 C   0  0  0  0  0  0  0  0  0  0  0  0
  -52.8921   -2.8952   69.5707 C   0  0  0  0  0  0  0  0  0  0  0  0
  -54.0200   -1.8906   69.8956 C   0  0  0  0  0  0  0  0  0  0  0  0
  -53.8624   -0.4955   69.1987 C   0  0  0  0  0  0  0  0  0  0  0  0
  -54.0308   -0.7018   67.6538 C   0  0  0  0  0  0  0  0  0  0  0  0
  -55.0056    0.4654   69.5859 C   0  0  0  0  0  0  0  0  0  0  0  0
  -55.3596    0.5694   71.0562 C   0  0  0  0  0  0  0  0  0  0  0  0
  -54.7552   -0.4784   71.9669 C   0  0  0  0  0  0  0  0  0  0  0  0
  -54.5650   -1.9055   71.3799 C   0  0  0  0  0  0  0  0  0  0  0  0
  -55.9589   -2.6027   71.3264 C   0  0  0  0  0  0  0  0  0  0  0  0
  -52.5060    0.2081   69.3762 C   0  0  0  0  0  0  0  0  0  0  0  0
  -52.0016    0.4309   70.4713 O   0  0  0  0  0  0  0  0  0  0  0  0
  -51.8488    0.5481   68.2548 O   0  0  0  0  0  0  0  0  0  0  0  0
  -52.3013    0.3804   67.4120 H   0  0  0  0  0  0  0  0  0  0  0  0
  -51.7684   -6.1853   75.6608 C   0  0  0  0  0  0  0  0  0  0  0  0
  -51.4554   -4.9086   75.3769 C   0  0  0  0  0  0  0  0  0  0  0  0
  -50.3175   -4.2155   76.0732 C   0  0  0  0  0  0  0  0  0  0  0  0
 21 22  2  0  0  0
 22 23  1  0  0  0
  1  2  2  0  0  0
  2  3  1  0  0  0
  3  4  2  0  0  0
  4  5  1  0  0  0
  5  6  2  0  0  0
  1  6  1  0  0  0
  5  7  1  0  0  0
  7  8  1  0  0  0
  8  9  1  0  0  0
  9 10  1  0  0  0
 17 18  2  0  0  0
 17 19  1  0  0  0
 10 12  1  0  0  0
 12 13  1  0  0  0
 13 14  1  0  0  0
 14 15  1  0  0  0
  4 15  1  0  0  0
  9 15  1  0  0  0
 22  1  1  0  0  0
 10 11  1  0  0  0
 10 17  1  0  0  0
 15 16  1  0  0  0
 19 20  1  0  0  0
M  END
> <minimizedAffinity>
-7.05624

$$$$
ligand_28


 23 25  0  0  0  0  0  0  0  0999 V2000
  -50.0393   -4.3138   75.1408 C   0  0  0  0  0  0  0  0  0  0  0  0
  -51.3747   -3.9525   75.3057 C   0  0  0  0  0  0  0  0  0  0  0  0
  -52.1179   -3.4536   74.2328 C   0  0  0  0  0  0  0  0  0  0  0  0
  -51.5611   -3.2697   72.9477 C   0  0  0  0  0  0  0  0  0  0  0  0
  -50.2138   -3.6037   72.7825 C   0  0  0  0  0  0  0  0  0  0  0  0
  -49.4716   -4.1172   73.8757 C   0  0  0  0  0  0  0  0  0  0  0  0
  -49.4786   -3.3731   71.4994 C   0  0  0  0  0  0  0  0  0  0  0  0
  -50.3553   -3.2774   70.2662 C   0  0  0  0  0  0  0  0  0  0  0  0
  -51.7233   -2.5737   70.4084 C   0  0  0  0  0  0  0  0  0  0  0  0
  -51.8129   -1.1851   69.6870 C   0  0  0  0  0  0  0  0  0  0  0  0
  -51.7215   -1.4329   68.1417 C   0  0  0  0  0  0  0  0  0  0  0  0
  -53.1935   -0.5271   69.8905 C   0  0  0  0  0  0  0  0  0  0  0  0
  -53.7530   -0.5050   71.2992 C   0  0  0  0  0  0  0  0  0  0  0  0
  -53.0416   -1.3715   72.3168 C   0  0  0  0  0  0  0  0  0  0  0  0
  -52.4401   -2.7130   71.8109 C   0  0  0  0  0  0  0  0  0  0  0  0
  -53.6074   -3.7267   71.6061 C   0  0  0  0  0  0  0  0  0  0  0  0
  -50.6996   -0.1737   70.0098 C   0  0  0  0  0  0  0  0  0  0  0  0
  -50.1358    0.5018   69.1560 O   0  0  0  0  0  0  0  0  0  0  0  0
  -50.3794   -0.0186   71.3054 O   0  0  0  0  0  0  0  0  0  0  0  0
  -50.8300   -0.5972   71.9420 H   0  0  0  0  0  0  0  0  0  0  0  0
  -49.5046   -4.4485   77.5346 C   0  0  0  0  0  0  0  0  0  0  0  0
  -49.2592   -4.8575   76.2772 C   0  0  0  0  0  0  0  0  0  0  0  0
  -48.2001   -5.8846   75.9882 C   0  0  0  0  0  0  0  0  0  0  0  0
 21 22  2  0  0  0
 22 23  1  0  0  0
  1  2  2  0  0  0
  2  3  1  0  0  0
  3  4  2  0  0  0
  4  5  1  0  0  0
  5  6  2  0  0  0
  1  6  1  0  0  0
  5  7  1  0  0  0
  7  8  1  0  0  0
  8  9  1  0  0  0
  9 10  1  0  0  0
 17 18  2  0  0  0
 17 19  1  0  0  0
 10 12  1  0  0  0
 12 13  1  0  0  0
 13 14  1  0  0  0
 14 15  1  0  0  0
  4 15  1  0  0  0
  9 15  1  0  0  0
 22  1  1  0  0  0
 10 11  1  0  0  0
 10 17  1  0  0  0
 15 16  1  0  0  0
 19 20  1  0  0  0
M  END
> <minimizedAffinity>
-6.90494

$$$$
ligand_28


 23 25  0  0  0  0  0  0  0  0999 V2000
  -54.7093    3.4488   73.0656 C   0  0  0  0  0  0  0  0  0  0  0  0
  -53.7160    3.8355   72.1686 C   0  0  0  0  0  0  0  0  0  0  0  0
  -53.2870    2.9691   71.1598 C   0  0  0  0  0  0  0  0  0  0  0  0
  -53.8114    1.6662   71.0085 C   0  0  0  0  0  0  0  0  0  0  0  0
  -54.7883    1.2615   71.9229 C   0  0  0  0  0  0  0  0  0  0  0  0
  -55.2222    2.1520   72.9369 C   0  0  0  0  0  0  0  0  0  0  0  0
  -55.3602   -0.1215   71.9306 C   0  0  0  0  0  0  0  0  0  0  0  0
  -55.2464   -0.8699   70.6171 C   0  0  0  0  0  0  0  0  0  0  0  0
  -53.9650   -0.6628   69.7793 C   0  0  0  0  0  0  0  0  0  0  0  0
  -53.0153   -1.9090   69.7335 C   0  0  0  0  0  0  0  0  0  0  0  0
  -53.7489   -3.0509   68.9488 C   0  0  0  0  0  0  0  0  0  0  0  0
  -51.7458   -1.6257   68.9038 C   0  0  0  0  0  0  0  0  0  0  0  0
  -51.0130   -0.3266   69.1745 C   0  0  0  0  0  0  0  0  0  0  0  0
  -51.7441    0.6909   70.0247 C   0  0  0  0  0  0  0  0  0  0  0  0
  -53.2897    0.7639   69.8734 C   0  0  0  0  0  0  0  0  0  0  0  0
  -53.6167    1.4910   68.5331 C   0  0  0  0  0  0  0  0  0  0  0  0
  -52.6269   -2.5229   71.0894 C   0  0  0  0  0  0  0  0  0  0  0  0
  -52.2504   -1.8562   72.0470 O   0  0  0  0  0  0  0  0  0  0  0  0
  -52.7546   -3.8550   71.2099 O   0  0  0  0  0  0  0  0  0  0  0  0
  -53.0259   -4.3443   70.4161 H   0  0  0  0  0  0  0  0  0  0  0  0
  -54.3089    5.2099   74.7307 C   0  0  0  0  0  0  0  0  0  0  0  0
  -55.1726    4.3766   74.1240 C   0  0  0  0  0  0  0  0  0  0  0  0
  -56.6309    4.3702   74.4892 C   0  0  0  0  0  0  0  0  0  0  0  0
 21 22  2  0  0  0
 22 23  1  0  0  0
  1  2  2  0  0  0
  2  3  1  0  0  0
  3  4  2  0  0  0
  4  5  1  0  0  0
  5  6  2  0  0  0
  1  6  1  0  0  0
  5  7  1  0  0  0
  7  8  1  0  0  0
  8  9  1  0  0  0
  9 10  1  0  0  0
 17 18  2  0  0  0
 17 19  1  0  0  0
 10 12  1  0  0  0
 12 13  1  0  0  0
 13 14  1  0  0  0
 14 15  1  0  0  0
  4 15  1  0  0  0
  9 15  1  0  0  0
 22  1  1  0  0  0
 10 11  1  0  0  0
 10 17  1  0  0  0
 15 16  1  0  0  0
 19 20  1  0  0  0
M  END
> <minimizedAffinity>
-6.88866

$$$$
ligand_28


 23 25  0  0  0  0  0  0  0  0999 V2000
  -48.9886   -3.9788   73.3247 C   0  0  0  0  0  0  0  0  0  0  0  0
  -50.0965   -3.7590   74.1403 C   0  0  0  0  0  0  0  0  0  0  0  0
  -51.3053   -3.3136   73.5993 C   0  0  0  0  0  0  0  0  0  0  0  0
  -51.4636   -3.0444   72.2216 C   0  0  0  0  0  0  0  0  0  0  0  0
  -50.3476   -3.2358   71.4018 C   0  0  0  0  0  0  0  0  0  0  0  0
  -49.1287   -3.6963   71.9601 C   0  0  0  0  0  0  0  0  0  0  0  0
  -50.3536   -2.9021   69.9429 C   0  0  0  0  0  0  0  0  0  0  0  0
  -51.7255   -2.8676   69.2985 C   0  0  0  0  0  0  0  0  0  0  0  0
  -52.8994   -2.3100   70.1340 C   0  0  0  0  0  0  0  0  0  0  0  0
  -53.4373   -0.9214   69.6451 C   0  0  0  0  0  0  0  0  0  0  0  0
  -54.0938   -1.1229   68.2358 C   0  0  0  0  0  0  0  0  0  0  0  0
  -54.5886   -0.4120   70.5370 C   0  0  0  0  0  0  0  0  0  0  0  0
  -54.3882   -0.4795   72.0380 C   0  0  0  0  0  0  0  0  0  0  0  0
  -53.2055   -1.2925   72.5206 C   0  0  0  0  0  0  0  0  0  0  0  0
  -52.8261   -2.5538   71.6946 C   0  0  0  0  0  0  0  0  0  0  0  0
  -53.8621   -3.6759   72.0105 C   0  0  0  0  0  0  0  0  0  0  0  0
  -52.3905    0.1901   69.4581 C   0  0  0  0  0  0  0  0  0  0  0  0
  -52.3173    0.8829   68.4492 O   0  0  0  0  0  0  0  0  0  0  0  0
  -51.5542    0.4135   70.4856 O   0  0  0  0  0  0  0  0  0  0  0  0
  -51.6290   -0.1803   71.2505 H   0  0  0  0  0  0  0  0  0  0  0  0
  -46.5349   -4.0118   73.4381 C   0  0  0  0  0  0  0  0  0  0  0  0
  -47.7132   -4.4665   73.9002 C   0  0  0  0  0  0  0  0  0  0  0  0
  -47.7731   -5.4686   75.0191 C   0  0  0  0  0  0  0  0  0  0  0  0
 21 22  2  0  0  0
 22 23  1  0  0  0
  1  2  2  0  0  0
  2  3  1  0  0  0
  3  4  2  0  0  0
  4  5  1  0  0  0
  5  6  2  0  0  0
  1  6  1  0  0  0
  5  7  1  0  0  0
  7  8  1  0  0  0
  8  9  1  0  0  0
  9 10  1  0  0  0
 17 18  2  0  0  0
 17 19  1  0  0  0
 10 12  1  0  0  0
 12 13  1  0  0  0
 13 14  1  0  0  0
 14 15  1  0  0  0
  4 15  1  0  0  0
  9 15  1  0  0  0
 22  1  1  0  0  0
 10 11  1  0  0  0
 10 17  1  0  0  0
 15 16  1  0  0  0
 19 20  1  0  0  0
M  END
> <minimizedAffinity>
-6.81109

$$$$
