ligand_11


 27 30  0  0  0  0  0  0  0  0999 V2000
  -49.8789    0.4191   68.1238 C   0  0  0  0  0  0  0  0  0  0  0  0
  -50.8964   -0.5226   68.7896 C   0  0  0  0  0  0  0  0  0  0  0  0
  -51.3817   -1.5223   67.7263 C   0  0  0  0  0  0  0  0  0  0  0  0
  -50.1534   -1.2474   69.7894 O   0  0  0  0  0  0  0  0  0  0  0  0
  -50.8355   -1.7358   70.8722 C   0  0  0  0  0  0  0  0  0  0  0  0
  -50.0696   -2.5243   71.7378 C   0  0  0  0  0  0  0  0  0  0  0  0
  -50.7128   -3.0171   72.8684 C   0  0  0  0  0  0  0  0  0  0  0  0
  -50.1315   -3.7608   73.8493 O   0  0  0  0  0  0  0  0  0  0  0  0
  -51.0955   -4.0312   74.7779 C   0  0  0  0  0  0  0  0  0  0  0  0
  -52.2991   -3.4816   74.3788 C   0  0  0  0  0  0  0  0  0  0  0  0
  -52.0522   -2.8000   73.1583 C   0  0  0  0  0  0  0  0  0  0  0  0
  -52.8099   -2.0105   72.2755 C   0  0  0  0  0  0  0  0  0  0  0  0
  -52.1814   -1.4546   71.1418 C   0  0  0  0  0  0  0  0  0  0  0  0
  -52.9728   -0.5644   70.2305 C   0  0  0  0  0  0  0  0  0  0  0  0
  -52.0392    0.3181   69.4076 C   0  0  0  0  0  0  0  0  0  0  0  0
  -52.7870    1.0425   68.4284 O   0  0  0  0  0  0  0  0  0  0  0  0
  -53.3102    0.4105   67.9068 H   0  0  0  0  0  0  0  0  0  0  0  0
  -50.6696   -4.7970   75.9394 C   0  0  0  0  0  0  0  0  0  0  0  0
  -49.9254   -4.1886   76.9610 C   0  0  0  0  0  0  0  0  0  0  0  0
  -49.4975   -4.9432   78.0525 C   0  0  0  0  0  0  0  0  0  0  0  0
  -48.7840   -4.3786   79.0698 O   0  0  0  0  0  0  0  0  0  0  0  0
  -49.7807   -6.3012   78.1433 C   0  0  0  0  0  0  0  0  0  0  0  0
  -50.5158   -6.9027   77.1295 C   0  0  0  0  0  0  0  0  0  0  0  0
  -50.8121   -8.2340   77.1623 O   0  0  0  0  0  0  0  0  0  0  0  0
  -50.9675   -6.1641   76.0393 C   0  0  0  0  0  0  0  0  0  0  0  0
  -48.7102   -3.4233   78.9094 H   0  0  0  0  0  0  0  0  0  0  0  0
  -50.4191   -8.6193   77.9629 H   0  0  0  0  0  0  0  0  0  0  0  0
  1  2  1  0  0  0
  2  3  1  0  0  0
  2  4  1  0  0  0
  4  5  1  0  0  0
  5  6  2  0  0  0
  6  7  1  0  0  0
  7  8  1  0  0  0
  8  9  1  0  0  0
  9 18  1  0  0  0
 18 19  2  0  0  0
 19 20  1  0  0  0
 20 21  1  0  0  0
 20 22  2  0  0  0
 22 23  1  0  0  0
 23 24  1  0  0  0
 23 25  2  0  0  0
 18 25  1  0  0  0
  9 10  2  0  0  0
 10 11  1  0  0  0
  7 11  2  0  0  0
 11 12  1  0  0  0
 12 13  2  0  0  0
  5 13  1  0  0  0
 13 14  1  0  0  0
 14 15  1  0  0  0
  2 15  1  0  0  0
 15 16  1  0  0  0
 21 26  1  0  0  0
 24 27  1  0  0  0
 16 17  1  0  0  0
M  END
> <minimizedAffinity>
-8.98084

$$$$
ligand_11


 27 30  0  0  0  0  0  0  0  0999 V2000
  -53.4968   -0.7965   68.1821 C   0  0  0  0  0  0  0  0  0  0  0  0
  -52.3810   -0.6197   69.2257 C   0  0  0  0  0  0  0  0  0  0  0  0
  -52.3981    0.8457   69.6925 C   0  0  0  0  0  0  0  0  0  0  0  0
  -52.7578   -1.4554   70.3377 O   0  0  0  0  0  0  0  0  0  0  0  0
  -51.7651   -1.9303   71.1533 C   0  0  0  0  0  0  0  0  0  0  0  0
  -52.2173   -2.6362   72.2735 C   0  0  0  0  0  0  0  0  0  0  0  0
  -51.2434   -3.1640   73.1148 C   0  0  0  0  0  0  0  0  0  0  0  0
  -51.4787   -3.9171   74.2242 O   0  0  0  0  0  0  0  0  0  0  0  0
  -50.2648   -4.2430   74.7577 C   0  0  0  0  0  0  0  0  0  0  0  0
  -49.2537   -3.6778   74.0039 C   0  0  0  0  0  0  0  0  0  0  0  0
  -49.8788   -3.0019   72.9232 C   0  0  0  0  0  0  0  0  0  0  0  0
  -49.4405   -2.2849   71.7961 C   0  0  0  0  0  0  0  0  0  0  0  0
  -50.3970   -1.7736   70.8945 C   0  0  0  0  0  0  0  0  0  0  0  0
  -49.9302   -1.0592   69.6612 C   0  0  0  0  0  0  0  0  0  0  0  0
  -51.0305   -1.0495   68.6045 C   0  0  0  0  0  0  0  0  0  0  0  0
  -50.6417   -0.2292   67.5005 O   0  0  0  0  0  0  0  0  0  0  0  0
  -50.3966    0.6493   67.8371 H   0  0  0  0  0  0  0  0  0  0  0  0
  -50.2914   -5.0831   75.9453 C   0  0  0  0  0  0  0  0  0  0  0  0
  -49.6214   -4.6888   77.1129 C   0  0  0  0  0  0  0  0  0  0  0  0
  -49.6296   -5.5195   78.2327 C   0  0  0  0  0  0  0  0  0  0  0  0
  -48.9996   -5.1591   79.3885 O   0  0  0  0  0  0  0  0  0  0  0  0
  -50.2793   -6.7484   78.2117 C   0  0  0  0  0  0  0  0  0  0  0  0
  -50.9403   -7.1384   77.0537 C   0  0  0  0  0  0  0  0  0  0  0  0
  -51.5840   -8.3386   76.9746 O   0  0  0  0  0  0  0  0  0  0  0  0
  -50.9590   -6.3166   75.9302 C   0  0  0  0  0  0  0  0  0  0  0  0
  -48.6425   -4.2615   79.2850 H   0  0  0  0  0  0  0  0  0  0  0  0
  -51.4702   -8.8075   77.8177 H   0  0  0  0  0  0  0  0  0  0  0  0
  1  2  1  0  0  0
  2  3  1  0  0  0
  2  4  1  0  0  0
  4  5  1  0  0  0
  5  6  2  0  0  0
  6  7  1  0  0  0
  7  8  1  0  0  0
  8  9  1  0  0  0
  9 18  1  0  0  0
 18 19  2  0  0  0
 19 20  1  0  0  0
 20 21  1  0  0  0
 20 22  2  0  0  0
 22 23  1  0  0  0
 23 24  1  0  0  0
 23 25  2  0  0  0
 18 25  1  0  0  0
  9 10  2  0  0  0
 10 11  1  0  0  0
  7 11  2  0  0  0
 11 12  1  0  0  0
 12 13  2  0  0  0
  5 13  1  0  0  0
 13 14  1  0  0  0
 14 15  1  0  0  0
  2 15  1  0  0  0
 15 16  1  0  0  0
 21 26  1  0  0  0
 24 27  1  0  0  0
 16 17  1  0  0  0
M  END
> <minimizedAffinity>
-8.61089

$$$$
ligand_11


 27 30  0  0  0  0  0  0  0  0999 V2000
  -54.2460   -3.2591   67.9739 C   0  0  0  0  0  0  0  0  0  0  0  0
  -53.1557   -2.6462   68.8688 C   0  0  0  0  0  0  0  0  0  0  0  0
  -53.4375   -1.1393   68.9928 C   0  0  0  0  0  0  0  0  0  0  0  0
  -53.3363   -3.2506   70.1646 O   0  0  0  0  0  0  0  0  0  0  0  0
  -52.2494   -3.3359   70.9938 C   0  0  0  0  0  0  0  0  0  0  0  0
  -52.5284   -3.8278   72.2736 C   0  0  0  0  0  0  0  0  0  0  0  0
  -51.4493   -3.9611   73.1411 C   0  0  0  0  0  0  0  0  0  0  0  0
  -51.5068   -4.4619   74.4056 O   0  0  0  0  0  0  0  0  0  0  0  0
  -50.2388   -4.4318   74.9114 C   0  0  0  0  0  0  0  0  0  0  0  0
  -49.3744   -3.8888   73.9796 C   0  0  0  0  0  0  0  0  0  0  0  0
  -50.1460   -3.6083   72.8215 C   0  0  0  0  0  0  0  0  0  0  0  0
  -49.8828   -3.1100   71.5334 C   0  0  0  0  0  0  0  0  0  0  0  0
  -50.9435   -3.0035   70.6099 C   0  0  0  0  0  0  0  0  0  0  0  0
  -50.6548   -2.5276   69.2173 C   0  0  0  0  0  0  0  0  0  0  0  0
  -51.7658   -2.9625   68.2664 C   0  0  0  0  0  0  0  0  0  0  0  0
  -51.5703   -2.3689   66.9810 O   0  0  0  0  0  0  0  0  0  0  0  0
  -51.4870   -1.4067   67.0924 H   0  0  0  0  0  0  0  0  0  0  0  0
  -50.0727   -4.9602   76.2568 C   0  0  0  0  0  0  0  0  0  0  0  0
  -50.5943   -6.2166   76.5989 C   0  0  0  0  0  0  0  0  0  0  0  0
  -50.4547   -6.6955   77.9009 C   0  0  0  0  0  0  0  0  0  0  0  0
  -50.9383   -7.9195   78.2626 O   0  0  0  0  0  0  0  0  0  0  0  0
  -49.8186   -5.9414   78.8803 C   0  0  0  0  0  0  0  0  0  0  0  0
  -49.3047   -4.6963   78.5403 C   0  0  0  0  0  0  0  0  0  0  0  0
  -48.6814   -3.9098   79.4646 O   0  0  0  0  0  0  0  0  0  0  0  0
  -49.4181   -4.2065   77.2421 C   0  0  0  0  0  0  0  0  0  0  0  0
  -51.3008   -8.3592   77.4758 H   0  0  0  0  0  0  0  0  0  0  0  0
  -48.6947   -4.3683   80.3210 H   0  0  0  0  0  0  0  0  0  0  0  0
  1  2  1  0  0  0
  2  3  1  0  0  0
  2  4  1  0  0  0
  4  5  1  0  0  0
  5  6  2  0  0  0
  6  7  1  0  0  0
  7  8  1  0  0  0
  8  9  1  0  0  0
  9 18  1  0  0  0
 18 19  2  0  0  0
 19 20  1  0  0  0
 20 21  1  0  0  0
 20 22  2  0  0  0
 22 23  1  0  0  0
 23 24  1  0  0  0
 23 25  2  0  0  0
 18 25  1  0  0  0
  9 10  2  0  0  0
 10 11  1  0  0  0
  7 11  2  0  0  0
 11 12  1  0  0  0
 12 13  2  0  0  0
  5 13  1  0  0  0
 13 14  1  0  0  0
 14 15  1  0  0  0
  2 15  1  0  0  0
 15 16  1  0  0  0
 21 26  1  0  0  0
 24 27  1  0  0  0
 16 17  1  0  0  0
M  END
> <minimizedAffinity>
-8.58663

$$$$
ligand_11


 27 30  0  0  0  0  0  0  0  0999 V2000
  -48.0219   -6.2206   76.0031 C   0  0  0  0  0  0  0  0  0  0  0  0
  -49.3868   -5.5137   76.0575 C   0  0  0  0  0  0  0  0  0  0  0  0
  -49.4973   -4.8031   77.4170 C   0  0  0  0  0  0  0  0  0  0  0  0
  -49.3428   -4.5114   75.0229 O   0  0  0  0  0  0  0  0  0  0  0  0
  -50.5274   -4.1036   74.4691 C   0  0  0  0  0  0  0  0  0  0  0  0
  -50.4130   -3.0491   73.5566 C   0  0  0  0  0  0  0  0  0  0  0  0
  -51.5870   -2.6214   72.9453 C   0  0  0  0  0  0  0  0  0  0  0  0
  -51.6778   -1.6459   72.0001 O   0  0  0  0  0  0  0  0  0  0  0  0
  -52.9942   -1.5386   71.6536 C   0  0  0  0  0  0  0  0  0  0  0  0
  -53.7488   -2.4281   72.3949 C   0  0  0  0  0  0  0  0  0  0  0  0
  -52.8411   -3.1516   73.2122 C   0  0  0  0  0  0  0  0  0  0  0  0
  -52.9401   -4.2068   74.1360 C   0  0  0  0  0  0  0  0  0  0  0  0
  -51.7658   -4.6992   74.7426 C   0  0  0  0  0  0  0  0  0  0  0  0
  -51.8622   -5.8629   75.6837 C   0  0  0  0  0  0  0  0  0  0  0  0
  -50.5079   -6.5527   75.8159 C   0  0  0  0  0  0  0  0  0  0  0  0
  -50.5655   -7.5536   76.8345 O   0  0  0  0  0  0  0  0  0  0  0  0
  -50.8929   -7.1449   77.6536 H   0  0  0  0  0  0  0  0  0  0  0  0
  -53.3076   -0.5630   70.6207 C   0  0  0  0  0  0  0  0  0  0  0  0
  -53.5627   -0.9750   69.3044 C   0  0  0  0  0  0  0  0  0  0  0  0
  -53.8304   -0.0257   68.3189 C   0  0  0  0  0  0  0  0  0  0  0  0
  -54.0965   -0.3941   67.0320 O   0  0  0  0  0  0  0  0  0  0  0  0
  -53.8338    1.3333   68.6116 C   0  0  0  0  0  0  0  0  0  0  0  0
  -53.5786    1.7398   69.9153 C   0  0  0  0  0  0  0  0  0  0  0  0
  -53.5583    3.0609   70.2552 O   0  0  0  0  0  0  0  0  0  0  0  0
  -53.3259    0.8078   70.9180 C   0  0  0  0  0  0  0  0  0  0  0  0
  -54.1210   -1.3640   66.9816 H   0  0  0  0  0  0  0  0  0  0  0  0
  -53.7297    3.5887   69.4578 H   0  0  0  0  0  0  0  0  0  0  0  0
  1  2  1  0  0  0
  2  3  1  0  0  0
  2  4  1  0  0  0
  4  5  1  0  0  0
  5  6  2  0  0  0
  6  7  1  0  0  0
  7  8  1  0  0  0
  8  9  1  0  0  0
  9 18  1  0  0  0
 18 19  2  0  0  0
 19 20  1  0  0  0
 20 21  1  0  0  0
 20 22  2  0  0  0
 22 23  1  0  0  0
 23 24  1  0  0  0
 23 25  2  0  0  0
 18 25  1  0  0  0
  9 10  2  0  0  0
 10 11  1  0  0  0
  7 11  2  0  0  0
 11 12  1  0  0  0
 12 13  2  0  0  0
  5 13  1  0  0  0
 13 14  1  0  0  0
 14 15  1  0  0  0
  2 15  1  0  0  0
 15 16  1  0  0  0
 21 26  1  0  0  0
 24 27  1  0  0  0
 16 17  1  0  0  0
M  END
> <minimizedAffinity>
-8.43243

$$$$
ligand_11


 27 30  0  0  0  0  0  0  0  0999 V2000
  -55.3912    0.0825   69.2072 C   0  0  0  0  0  0  0  0  0  0  0  0
  -54.1094    0.1947   70.0496 C   0  0  0  0  0  0  0  0  0  0  0  0
  -54.0872    1.5914   70.6932 C   0  0  0  0  0  0  0  0  0  0  0  0
  -54.2495   -0.7860   71.0963 O   0  0  0  0  0  0  0  0  0  0  0  0
  -53.1096   -1.2997   71.6558 C   0  0  0  0  0  0  0  0  0  0  0  0
  -53.3264   -2.1567   72.7403 C   0  0  0  0  0  0  0  0  0  0  0  0
  -52.1986   -2.7270   73.3216 C   0  0  0  0  0  0  0  0  0  0  0  0
  -52.2028   -3.6177   74.3510 O   0  0  0  0  0  0  0  0  0  0  0  0
  -50.9019   -3.9384   74.6147 C   0  0  0  0  0  0  0  0  0  0  0  0
  -50.0644   -3.2340   73.7705 C   0  0  0  0  0  0  0  0  0  0  0  0
  -50.8980   -2.4698   72.9124 C   0  0  0  0  0  0  0  0  0  0  0  0
  -50.6965   -1.6017   71.8250 C   0  0  0  0  0  0  0  0  0  0  0  0
  -51.8177   -1.0396   71.1797 C   0  0  0  0  0  0  0  0  0  0  0  0
  -51.6075   -0.1601   69.9833 C   0  0  0  0  0  0  0  0  0  0  0  0
  -52.8825   -0.0848   69.1489 C   0  0  0  0  0  0  0  0  0  0  0  0
  -52.7287    0.8802   68.1059 O   0  0  0  0  0  0  0  0  0  0  0  0
  -52.4541    1.7246   68.5017 H   0  0  0  0  0  0  0  0  0  0  0  0
  -50.6839   -4.9134   75.6724 C   0  0  0  0  0  0  0  0  0  0  0  0
  -51.3781   -6.1322   75.6729 C   0  0  0  0  0  0  0  0  0  0  0  0
  -51.1820   -7.0429   76.7103 C   0  0  0  0  0  0  0  0  0  0  0  0
  -51.8312   -8.2432   76.7333 O   0  0  0  0  0  0  0  0  0  0  0  0
  -50.3181   -6.7598   77.7620 C   0  0  0  0  0  0  0  0  0  0  0  0
  -49.6330   -5.5512   77.7611 C   0  0  0  0  0  0  0  0  0  0  0  0
  -48.7820   -5.2176   78.7738 O   0  0  0  0  0  0  0  0  0  0  0  0
  -49.8012   -4.6352   76.7264 C   0  0  0  0  0  0  0  0  0  0  0  0
  -52.3506   -8.3352   75.9175 H   0  0  0  0  0  0  0  0  0  0  0  0
  -48.7811   -5.9364   79.4273 H   0  0  0  0  0  0  0  0  0  0  0  0
  1  2  1  0  0  0
  2  3  1  0  0  0
  2  4  1  0  0  0
  4  5  1  0  0  0
  5  6  2  0  0  0
  6  7  1  0  0  0
  7  8  1  0  0  0
  8  9  1  0  0  0
  9 18  1  0  0  0
 18 19  2  0  0  0
 19 20  1  0  0  0
 20 21  1  0  0  0
 20 22  2  0  0  0
 22 23  1  0  0  0
 23 24  1  0  0  0
 23 25  2  0  0  0
 18 25  1  0  0  0
  9 10  2  0  0  0
 10 11  1  0  0  0
  7 11  2  0  0  0
 11 12  1  0  0  0
 12 13  2  0  0  0
  5 13  1  0  0  0
 13 14  1  0  0  0
 14 15  1  0  0  0
  2 15  1  0  0  0
 15 16  1  0  0  0
 21 26  1  0  0  0
 24 27  1  0  0  0
 16 17  1  0  0  0
M  END
> <minimizedAffinity>
-8.33615

$$$$
