ligand_44


  8  7  0  0  0  0  0  0  0  0999 V2000
  -47.1654    1.8155   80.6766 C   0  0  0  0  0  0  0  0  0  0  0  0
  -47.0099    4.0176   81.8755 C   0  0  0  0  0  0  0  0  0  0  0  0
  -47.2451    2.5145   82.0465 C   0  0  0  0  0  0  0  0  0  0  0  0
  -48.5848    2.2793   82.7458 C   0  0  0  0  0  0  0  0  0  0  0  0
  -47.6695    0.3720   80.6966 C   0  0  0  0  0  0  0  0  0  0  0  0
  -46.7053   -0.5457   81.4389 C   0  0  0  0  0  0  0  0  0  0  0  0
  -47.3411   -1.0827   82.5912 O   0  0  0  0  0  0  0  0  0  0  0  0
  -47.6040   -0.3361   83.1556 H   0  0  0  0  0  0  0  0  0  0  0  0
  2  3  1  0  0  0
  3  4  1  0  0  0
  3  1  1  0  0  0
  1  5  1  0  0  0
  5  6  1  0  0  0
  6  7  1  0  0  0
  7  8  1  0  0  0
M  END
> <minimizedAffinity>
-4.33215

$$$$
ligand_44


  8  7  0  0  0  0  0  0  0  0999 V2000
  -46.9159    1.6664   80.8836 C   0  0  0  0  0  0  0  0  0  0  0  0
  -48.4174    2.1531   82.8378 C   0  0  0  0  0  0  0  0  0  0  0  0
  -47.7139    2.7582   81.6202 C   0  0  0  0  0  0  0  0  0  0  0  0
  -46.8334    3.9278   82.0628 C   0  0  0  0  0  0  0  0  0  0  0  0
  -47.6567    0.3328   80.7796 C   0  0  0  0  0  0  0  0  0  0  0  0
  -46.8314   -0.8109   81.3572 C   0  0  0  0  0  0  0  0  0  0  0  0
  -47.3615   -1.1997   82.6175 O   0  0  0  0  0  0  0  0  0  0  0  0
  -47.3258   -0.4240   83.2024 H   0  0  0  0  0  0  0  0  0  0  0  0
  2  3  1  0  0  0
  3  4  1  0  0  0
  3  1  1  0  0  0
  1  5  1  0  0  0
  5  6  1  0  0  0
  6  7  1  0  0  0
  7  8  1  0  0  0
M  END
> <minimizedAffinity>
-4.24701

$$$$
ligand_44


  8  7  0  0  0  0  0  0  0  0999 V2000
  -46.9686   -1.1697   81.3822 C   0  0  0  0  0  0  0  0  0  0  0  0
  -45.9630   -3.1359   80.1850 C   0  0  0  0  0  0  0  0  0  0  0  0
  -47.1312   -2.1465   80.2029 C   0  0  0  0  0  0  0  0  0  0  0  0
  -48.4539   -2.9125   80.2563 C   0  0  0  0  0  0  0  0  0  0  0  0
  -47.6335    0.1873   81.1481 C   0  0  0  0  0  0  0  0  0  0  0  0
  -47.3793    1.1412   82.3093 C   0  0  0  0  0  0  0  0  0  0  0  0
  -46.6198    0.4845   83.3155 O   0  0  0  0  0  0  0  0  0  0  0  0
  -47.1320   -0.2863   83.6132 H   0  0  0  0  0  0  0  0  0  0  0  0
  2  3  1  0  0  0
  3  4  1  0  0  0
  3  1  1  0  0  0
  1  5  1  0  0  0
  5  6  1  0  0  0
  6  7  1  0  0  0
  7  8  1  0  0  0
M  END
> <minimizedAffinity>
-3.95763

$$$$
ligand_44


  8  7  0  0  0  0  0  0  0  0999 V2000
  -47.6227    0.9343   80.7166 C   0  0  0  0  0  0  0  0  0  0  0  0
  -47.2674   -0.1031   82.9766 C   0  0  0  0  0  0  0  0  0  0  0  0
  -46.8755   -0.1623   81.4979 C   0  0  0  0  0  0  0  0  0  0  0  0
  -47.1507   -1.5626   80.9479 C   0  0  0  0  0  0  0  0  0  0  0  0
  -46.8385    2.2416   80.5966 C   0  0  0  0  0  0  0  0  0  0  0  0
  -47.2625    3.2466   81.6611 C   0  0  0  0  0  0  0  0  0  0  0  0
  -46.1761    3.5050   82.5404 O   0  0  0  0  0  0  0  0  0  0  0  0
  -45.9234    2.6604   82.9502 H   0  0  0  0  0  0  0  0  0  0  0  0
  2  3  1  0  0  0
  3  4  1  0  0  0
  3  1  1  0  0  0
  1  5  1  0  0  0
  5  6  1  0  0  0
  6  7  1  0  0  0
  7  8  1  0  0  0
M  END
> <minimizedAffinity>
-3.94123

$$$$
ligand_44


  8  7  0  0  0  0  0  0  0  0999 V2000
  -51.9733   -7.9556   83.4463 C   0  0  0  0  0  0  0  0  0  0  0  0
  -51.4666   -9.1165   81.2770 C   0  0  0  0  0  0  0  0  0  0  0  0
  -51.0103   -8.0231   82.2465 C   0  0  0  0  0  0  0  0  0  0  0  0
  -50.9048   -6.6893   81.5056 C   0  0  0  0  0  0  0  0  0  0  0  0
  -52.9887   -9.0984   83.4803 C   0  0  0  0  0  0  0  0  0  0  0  0
  -54.2236   -8.7240   84.2913 C   0  0  0  0  0  0  0  0  0  0  0  0
  -55.2043   -8.1482   83.4387 O   0  0  0  0  0  0  0  0  0  0  0  0
  -54.8111   -7.3577   83.0316 H   0  0  0  0  0  0  0  0  0  0  0  0
  2  3  1  0  0  0
  3  4  1  0  0  0
  3  1  1  0  0  0
  1  5  1  0  0  0
  5  6  1  0  0  0
  6  7  1  0  0  0
  7  8  1  0  0  0
M  END
> <minimizedAffinity>
-3.93408

$$$$
