ligand_42


 36 39  0  0  0  0  0  0  0  0999 V2000
  -54.2671   -2.1104   70.8453 C   0  0  0  0  0  0  0  0  0  0  0  0
  -54.4323   -1.5900   69.4090 C   0  0  0  0  0  0  0  0  0  0  0  0
  -54.7247   -0.1083   69.3879 C   0  0  0  0  0  0  0  0  0  0  0  0
  -54.4737    0.6633   68.2453 C   0  0  0  0  0  0  0  0  0  0  0  0
  -54.1906    0.1143   67.0261 O   0  0  0  0  0  0  0  0  0  0  0  0
  -54.4413    2.0528   68.3119 C   0  0  0  0  0  0  0  0  0  0  0  0
  -54.7214    2.6808   69.5189 C   0  0  0  0  0  0  0  0  0  0  0  0
  -54.6027    4.0330   69.6531 O   0  0  0  0  0  0  0  0  0  0  0  0
  -55.1052    1.9455   70.6338 C   0  0  0  0  0  0  0  0  0  0  0  0
  -55.1165    0.5517   70.5693 C   0  0  0  0  0  0  0  0  0  0  0  0
  -55.3821   -0.0933   71.7601 O   0  0  0  0  0  0  0  0  0  0  0  0
  -55.4581   -1.5181   71.6417 C   0  0  0  0  0  0  0  0  0  0  0  0
  -54.3925   -0.8340   67.0429 H   0  0  0  0  0  0  0  0  0  0  0  0
  -54.1344    4.3755   68.8728 H   0  0  0  0  0  0  0  0  0  0  0  0
  -55.7149   -2.1840   72.9838 C   0  0  0  0  0  0  0  0  0  0  0  0
  -56.3414   -3.4445   73.0173 C   0  0  0  0  0  0  0  0  0  0  0  0
  -56.5318   -4.1296   74.2201 C   0  0  0  0  0  0  0  0  0  0  0  0
  -56.0976   -3.5488   75.4059 C   0  0  0  0  0  0  0  0  0  0  0  0
  -56.2396   -4.1898   76.6008 O   0  0  0  0  0  0  0  0  0  0  0  0
  -55.5030   -2.2961   75.4032 C   0  0  0  0  0  0  0  0  0  0  0  0
  -55.3181   -1.6089   74.1992 C   0  0  0  0  0  0  0  0  0  0  0  0
  -56.6583   -5.0510   76.4448 H   0  0  0  0  0  0  0  0  0  0  0  0
  -52.9284   -1.9770   71.3896 O   0  0  0  0  0  0  0  0  0  0  0  0
  -52.7957   -4.8472   74.4967 C   0  0  0  0  0  0  0  0  0  0  0  0
  -52.2413   -3.7216   73.6301 C   0  0  0  0  0  0  0  0  0  0  0  0
  -52.3693   -4.1170   72.2623 O   0  0  0  0  0  0  0  0  0  0  0  0
  -52.0400   -3.0895   71.3248 C   0  0  0  0  0  0  0  0  0  0  0  0
  -50.5612   -2.6886   71.5367 C   0  0  0  0  0  0  0  0  0  0  0  0
  -49.6809   -3.7854   71.1883 O   0  0  0  0  0  0  0  0  0  0  0  0
  -50.2790   -2.3240   72.9958 C   0  0  0  0  0  0  0  0  0  0  0  0
  -48.8661   -2.1508   73.1924 O   0  0  0  0  0  0  0  0  0  0  0  0
  -50.7823   -3.4103   73.9598 C   0  0  0  0  0  0  0  0  0  0  0  0
  -50.6824   -2.9778   75.3212 O   0  0  0  0  0  0  0  0  0  0  0  0
  -50.1999   -4.6113   71.2665 H   0  0  0  0  0  0  0  0  0  0  0  0
  -48.4410   -2.8439   72.6430 H   0  0  0  0  0  0  0  0  0  0  0  0
  -50.2097   -2.1257   75.3267 H   0  0  0  0  0  0  0  0  0  0  0  0
 24 25  1  0  0  0
 25 26  1  0  0  0
 26 27  1  0  0  0
  1  2  1  0  0  0
  2  3  1  0  0  0
  3  4  2  0  0  0
  4  5  1  0  0  0
  4  6  1  0  0  0
  6  7  2  0  0  0
  7  8  1  0  0  0
  7  9  1  0  0  0
  9 10  2  0  0  0
  3 10  1  0  0  0
 10 11  1  0  0  0
 11 12  1  0  0  0
  1 12  1  0  0  0
 12 15  1  0  0  0
 15 16  2  0  0  0
 16 17  1  0  0  0
 17 18  2  0  0  0
 18 19  1  0  0  0
 18 20  1  0  0  0
 20 21  2  0  0  0
 15 21  1  0  0  0
 27 28  1  0  0  0
 28 29  1  0  0  0
 28 30  1  0  0  0
 30 31  1  0  0  0
 30 32  1  0  0  0
 25 32  1  0  0  0
 32 33  1  0  0  0
 27 23  1  0  0  0
  1 23  1  0  0  0
  5 13  1  0  0  0
  8 14  1  0  0  0
 19 22  1  0  0  0
 29 34  1  0  0  0
 31 35  1  0  0  0
 33 36  1  0  0  0
M  END
> <minimizedAffinity>
-8.42686

$$$$
ligand_42


 36 39  0  0  0  0  0  0  0  0999 V2000
  -54.4029   -0.7312   71.4769 C   0  0  0  0  0  0  0  0  0  0  0  0
  -54.5866    0.4601   70.5239 C   0  0  0  0  0  0  0  0  0  0  0  0
  -54.7200    1.7594   71.2823 C   0  0  0  0  0  0  0  0  0  0  0  0
  -54.4483    2.9886   70.6666 C   0  0  0  0  0  0  0  0  0  0  0  0
  -54.2895    3.1234   69.3158 O   0  0  0  0  0  0  0  0  0  0  0  0
  -54.2643    4.1430   71.4214 C   0  0  0  0  0  0  0  0  0  0  0  0
  -54.4122    4.0820   72.8014 C   0  0  0  0  0  0  0  0  0  0  0  0
  -54.1430    5.1642   73.5867 O   0  0  0  0  0  0  0  0  0  0  0  0
  -54.8134    2.9067   73.4248 C   0  0  0  0  0  0  0  0  0  0  0  0
  -54.9766    1.7463   72.6675 C   0  0  0  0  0  0  0  0  0  0  0  0
  -55.2469    0.6017   73.3900 O   0  0  0  0  0  0  0  0  0  0  0  0
  -55.4806   -0.5535   72.5773 C   0  0  0  0  0  0  0  0  0  0  0  0
  -54.5904    2.3154   68.8719 H   0  0  0  0  0  0  0  0  0  0  0  0
  -53.6823    5.8264   73.0437 H   0  0  0  0  0  0  0  0  0  0  0  0
  -55.7363   -1.7938   73.4180 C   0  0  0  0  0  0  0  0  0  0  0  0
  -55.4483   -1.7620   74.7959 C   0  0  0  0  0  0  0  0  0  0  0  0
  -55.7351   -2.8504   75.6236 C   0  0  0  0  0  0  0  0  0  0  0  0
  -56.3113   -3.9881   75.0705 C   0  0  0  0  0  0  0  0  0  0  0  0
  -56.6314   -5.0653   75.8423 O   0  0  0  0  0  0  0  0  0  0  0  0
  -56.5790   -4.0553   73.7116 C   0  0  0  0  0  0  0  0  0  0  0  0
  -56.2862   -2.9672   72.8831 C   0  0  0  0  0  0  0  0  0  0  0  0
  -56.3976   -4.8695   76.7634 H   0  0  0  0  0  0  0  0  0  0  0  0
  -53.0310   -0.9825   71.8779 O   0  0  0  0  0  0  0  0  0  0  0  0
  -52.8066   -4.5650   74.1195 C   0  0  0  0  0  0  0  0  0  0  0  0
  -52.2431   -3.3190   73.4448 C   0  0  0  0  0  0  0  0  0  0  0  0
  -52.6748   -3.3245   72.0821 O   0  0  0  0  0  0  0  0  0  0  0  0
  -52.3581   -2.1293   71.3650 C   0  0  0  0  0  0  0  0  0  0  0  0
  -50.8204   -1.9629   71.3451 C   0  0  0  0  0  0  0  0  0  0  0  0
  -50.2035   -3.0193   70.5686 O   0  0  0  0  0  0  0  0  0  0  0  0
  -50.2276   -2.0279   72.7543 C   0  0  0  0  0  0  0  0  0  0  0  0
  -48.7931   -2.0684   72.6803 O   0  0  0  0  0  0  0  0  0  0  0  0
  -50.7179   -3.2673   73.5198 C   0  0  0  0  0  0  0  0  0  0  0  0
  -50.3087   -3.2214   74.8911 O   0  0  0  0  0  0  0  0  0  0  0  0
  -50.8256   -3.7746   70.5589 H   0  0  0  0  0  0  0  0  0  0  0  0
  -48.5894   -2.6351   71.9054 H   0  0  0  0  0  0  0  0  0  0  0  0
  -49.7124   -2.4579   74.9964 H   0  0  0  0  0  0  0  0  0  0  0  0
 24 25  1  0  0  0
 25 26  1  0  0  0
 26 27  1  0  0  0
  1  2  1  0  0  0
  2  3  1  0  0  0
  3  4  2  0  0  0
  4  5  1  0  0  0
  4  6  1  0  0  0
  6  7  2  0  0  0
  7  8  1  0  0  0
  7  9  1  0  0  0
  9 10  2  0  0  0
  3 10  1  0  0  0
 10 11  1  0  0  0
 11 12  1  0  0  0
  1 12  1  0  0  0
 12 15  1  0  0  0
 15 16  2  0  0  0
 16 17  1  0  0  0
 17 18  2  0  0  0
 18 19  1  0  0  0
 18 20  1  0  0  0
 20 21  2  0  0  0
 15 21  1  0  0  0
 27 28  1  0  0  0
 28 29  1  0  0  0
 28 30  1  0  0  0
 30 31  1  0  0  0
 30 32  1  0  0  0
 25 32  1  0  0  0
 32 33  1  0  0  0
 27 23  1  0  0  0
  1 23  1  0  0  0
  5 13  1  0  0  0
  8 14  1  0  0  0
 19 22  1  0  0  0
 29 34  1  0  0  0
 31 35  1  0  0  0
 33 36  1  0  0  0
M  END
> <minimizedAffinity>
-8.35710

$$$$
ligand_42


 36 39  0  0  0  0  0  0  0  0999 V2000
  -51.6762   -5.1862   74.7085 C   0  0  0  0  0  0  0  0  0  0  0  0
  -51.3634   -6.3400   75.6740 C   0  0  0  0  0  0  0  0  0  0  0  0
  -50.4792   -5.8854   76.8110 C   0  0  0  0  0  0  0  0  0  0  0  0
  -50.4280   -6.5963   78.0175 C   0  0  0  0  0  0  0  0  0  0  0  0
  -50.9611   -7.8459   78.1662 O   0  0  0  0  0  0  0  0  0  0  0  0
  -49.8738   -6.0287   79.1608 C   0  0  0  0  0  0  0  0  0  0  0  0
  -49.3108   -4.7609   79.0841 C   0  0  0  0  0  0  0  0  0  0  0  0
  -48.8480   -4.1277   80.2000 O   0  0  0  0  0  0  0  0  0  0  0  0
  -49.2275   -4.0893   77.8705 C   0  0  0  0  0  0  0  0  0  0  0  0
  -49.8026   -4.6523   76.7307 C   0  0  0  0  0  0  0  0  0  0  0  0
  -49.7858   -3.8548   75.6043 O   0  0  0  0  0  0  0  0  0  0  0  0
  -50.3171   -4.4911   74.4372 C   0  0  0  0  0  0  0  0  0  0  0  0
  -51.1737   -8.2134   77.2944 H   0  0  0  0  0  0  0  0  0  0  0  0
  -49.1596   -4.6190   80.9792 H   0  0  0  0  0  0  0  0  0  0  0  0
  -50.3113   -3.5617   73.2344 C   0  0  0  0  0  0  0  0  0  0  0  0
  -49.6065   -2.3450   73.3089 C   0  0  0  0  0  0  0  0  0  0  0  0
  -49.5097   -1.4925   72.2061 C   0  0  0  0  0  0  0  0  0  0  0  0
  -50.1282   -1.8540   71.0149 C   0  0  0  0  0  0  0  0  0  0  0  0
  -50.0411   -1.0665   69.9055 O   0  0  0  0  0  0  0  0  0  0  0  0
  -50.8519   -3.0333   70.9237 C   0  0  0  0  0  0  0  0  0  0  0  0
  -50.9527   -3.8831   72.0299 C   0  0  0  0  0  0  0  0  0  0  0  0
  -49.5004   -0.2889   70.1167 H   0  0  0  0  0  0  0  0  0  0  0  0
  -52.8145   -4.3693   75.0866 O   0  0  0  0  0  0  0  0  0  0  0  0
  -54.2830   -2.4332   71.6218 C   0  0  0  0  0  0  0  0  0  0  0  0
  -54.2610   -2.7814   73.1063 C   0  0  0  0  0  0  0  0  0  0  0  0
  -54.2825   -4.2060   73.2232 O   0  0  0  0  0  0  0  0  0  0  0  0
  -54.0998   -4.6845   74.5576 C   0  0  0  0  0  0  0  0  0  0  0  0
  -55.2563   -4.1476   75.4333 C   0  0  0  0  0  0  0  0  0  0  0  0
  -56.5197   -4.7226   75.0175 O   0  0  0  0  0  0  0  0  0  0  0  0
  -55.3894   -2.6273   75.3219 C   0  0  0  0  0  0  0  0  0  0  0  0
  -56.5865   -2.1909   75.9862 O   0  0  0  0  0  0  0  0  0  0  0  0
  -55.4425   -2.1680   73.8561 C   0  0  0  0  0  0  0  0  0  0  0  0
  -55.3793   -0.7407   73.7605 O   0  0  0  0  0  0  0  0  0  0  0  0
  -56.4195   -5.0015   74.0848 H   0  0  0  0  0  0  0  0  0  0  0  0
  -57.2580   -2.8787   75.7887 H   0  0  0  0  0  0  0  0  0  0  0  0
  -55.4286   -0.3814   74.6650 H   0  0  0  0  0  0  0  0  0  0  0  0
 24 25  1  0  0  0
 25 26  1  0  0  0
 26 27  1  0  0  0
  1  2  1  0  0  0
  2  3  1  0  0  0
  3  4  2  0  0  0
  4  5  1  0  0  0
  4  6  1  0  0  0
  6  7  2  0  0  0
  7  8  1  0  0  0
  7  9  1  0  0  0
  9 10  2  0  0  0
  3 10  1  0  0  0
 10 11  1  0  0  0
 11 12  1  0  0  0
  1 12  1  0  0  0
 12 15  1  0  0  0
 15 16  2  0  0  0
 16 17  1  0  0  0
 17 18  2  0  0  0
 18 19  1  0  0  0
 18 20  1  0  0  0
 20 21  2  0  0  0
 15 21  1  0  0  0
 27 28  1  0  0  0
 28 29  1  0  0  0
 28 30  1  0  0  0
 30 31  1  0  0  0
 30 32  1  0  0  0
 25 32  1  0  0  0
 32 33  1  0  0  0
 27 23  1  0  0  0
  1 23  1  0  0  0
  5 13  1  0  0  0
  8 14  1  0  0  0
 19 22  1  0  0  0
 29 34  1  0  0  0
 31 35  1  0  0  0
 33 36  1  0  0  0
M  END
> <minimizedAffinity>
-8.26776

$$$$
ligand_42


 36 39  0  0  0  0  0  0  0  0999 V2000
  -53.0488   -2.8871   71.9238 C   0  0  0  0  0  0  0  0  0  0  0  0
  -53.2994   -4.1608   72.7460 C   0  0  0  0  0  0  0  0  0  0  0  0
  -52.1768   -4.4182   73.7230 C   0  0  0  0  0  0  0  0  0  0  0  0
  -52.3720   -5.2197   74.8559 C   0  0  0  0  0  0  0  0  0  0  0  0
  -53.4775   -6.0044   75.0286 O   0  0  0  0  0  0  0  0  0  0  0  0
  -51.4602   -5.2091   75.9070 C   0  0  0  0  0  0  0  0  0  0  0  0
  -50.3110   -4.4358   75.8004 C   0  0  0  0  0  0  0  0  0  0  0  0
  -49.4424   -4.3179   76.8454 O   0  0  0  0  0  0  0  0  0  0  0  0
  -50.0267   -3.7372   74.6333 C   0  0  0  0  0  0  0  0  0  0  0  0
  -50.9528   -3.7333   73.5897 C   0  0  0  0  0  0  0  0  0  0  0  0
  -50.6439   -2.9075   72.5279 O   0  0  0  0  0  0  0  0  0  0  0  0
  -51.5773   -2.9840   71.4451 C   0  0  0  0  0  0  0  0  0  0  0  0
  -53.9632   -6.0688   74.1918 H   0  0  0  0  0  0  0  0  0  0  0  0
  -49.8716   -4.6803   77.6392 H   0  0  0  0  0  0  0  0  0  0  0  0
  -51.2151   -2.0306   70.3180 C   0  0  0  0  0  0  0  0  0  0  0  0
  -50.7462   -0.7407   70.6324 C   0  0  0  0  0  0  0  0  0  0  0  0
  -50.3307    0.1447   69.6346 C   0  0  0  0  0  0  0  0  0  0  0  0
  -50.3882   -0.2580   68.3055 C   0  0  0  0  0  0  0  0  0  0  0  0
  -49.9710    0.5619   67.2994 O   0  0  0  0  0  0  0  0  0  0  0  0
  -50.8722   -1.5127   67.9674 C   0  0  0  0  0  0  0  0  0  0  0  0
  -51.2933   -2.3960   68.9668 C   0  0  0  0  0  0  0  0  0  0  0  0
  -49.6527    1.3929   67.6860 H   0  0  0  0  0  0  0  0  0  0  0  0
  -53.4983   -1.6593   72.5536 O   0  0  0  0  0  0  0  0  0  0  0  0
  -54.7478   -0.7265   68.6193 C   0  0  0  0  0  0  0  0  0  0  0  0
  -54.3873   -0.4099   70.0668 C   0  0  0  0  0  0  0  0  0  0  0  0
  -55.1691   -1.2596   70.9097 O   0  0  0  0  0  0  0  0  0  0  0  0
  -54.8188   -1.1904   72.2937 C   0  0  0  0  0  0  0  0  0  0  0  0
  -55.0479    0.2583   72.7851 C   0  0  0  0  0  0  0  0  0  0  0  0
  -56.4583    0.5890   72.7567 O   0  0  0  0  0  0  0  0  0  0  0  0
  -54.3237    1.2753   71.9004 C   0  0  0  0  0  0  0  0  0  0  0  0
  -54.7170    2.6085   72.2648 O   0  0  0  0  0  0  0  0  0  0  0  0
  -54.6373    1.0574   70.4115 C   0  0  0  0  0  0  0  0  0  0  0  0
  -53.8154    1.8886   69.5846 O   0  0  0  0  0  0  0  0  0  0  0  0
  -56.8831   -0.0038   72.1043 H   0  0  0  0  0  0  0  0  0  0  0  0
  -55.6750    2.5495   72.4689 H   0  0  0  0  0  0  0  0  0  0  0  0
  -53.3176    2.4880   70.1699 H   0  0  0  0  0  0  0  0  0  0  0  0
 24 25  1  0  0  0
 25 26  1  0  0  0
 26 27  1  0  0  0
  1  2  1  0  0  0
  2  3  1  0  0  0
  3  4  2  0  0  0
  4  5  1  0  0  0
  4  6  1  0  0  0
  6  7  2  0  0  0
  7  8  1  0  0  0
  7  9  1  0  0  0
  9 10  2  0  0  0
  3 10  1  0  0  0
 10 11  1  0  0  0
 11 12  1  0  0  0
  1 12  1  0  0  0
 12 15  1  0  0  0
 15 16  2  0  0  0
 16 17  1  0  0  0
 17 18  2  0  0  0
 18 19  1  0  0  0
 18 20  1  0  0  0
 20 21  2  0  0  0
 15 21  1  0  0  0
 27 28  1  0  0  0
 28 29  1  0  0  0
 28 30  1  0  0  0
 30 31  1  0  0  0
 30 32  1  0  0  0
 25 32  1  0  0  0
 32 33  1  0  0  0
 27 23  1  0  0  0
  1 23  1  0  0  0
  5 13  1  0  0  0
  8 14  1  0  0  0
 19 22  1  0  0  0
 29 34  1  0  0  0
 31 35  1  0  0  0
 33 36  1  0  0  0
M  END
> <minimizedAffinity>
-8.22457

$$$$
ligand_42


 36 39  0  0  0  0  0  0  0  0999 V2000
  -53.3670   -0.6418   71.2836 C   0  0  0  0  0  0  0  0  0  0  0  0
  -52.1832   -0.4620   70.3205 C   0  0  0  0  0  0  0  0  0  0  0  0
  -52.1440   -1.5579   69.2819 C   0  0  0  0  0  0  0  0  0  0  0  0
  -51.4692   -1.3803   68.0666 C   0  0  0  0  0  0  0  0  0  0  0  0
  -50.6165   -0.3373   67.8364 O   0  0  0  0  0  0  0  0  0  0  0  0
  -51.6852   -2.2407   66.9946 C   0  0  0  0  0  0  0  0  0  0  0  0
  -52.5383   -3.3251   67.1563 C   0  0  0  0  0  0  0  0  0  0  0  0
  -52.8558   -4.1339   66.1049 O   0  0  0  0  0  0  0  0  0  0  0  0
  -53.1150   -3.6016   68.3899 C   0  0  0  0  0  0  0  0  0  0  0  0
  -52.9130   -2.7253   69.4567 C   0  0  0  0  0  0  0  0  0  0  0  0
  -53.6304   -3.0110   70.6007 O   0  0  0  0  0  0  0  0  0  0  0  0
  -53.3435   -2.1359   71.6969 C   0  0  0  0  0  0  0  0  0  0  0  0
  -50.4103    0.1039   68.6749 H   0  0  0  0  0  0  0  0  0  0  0  0
  -52.5544   -3.7018   65.2876 H   0  0  0  0  0  0  0  0  0  0  0  0
  -54.1839   -2.4670   72.9194 C   0  0  0  0  0  0  0  0  0  0  0  0
  -54.6462   -3.7847   73.0999 C   0  0  0  0  0  0  0  0  0  0  0  0
  -55.3583   -4.1548   74.2435 C   0  0  0  0  0  0  0  0  0  0  0  0
  -55.6185   -3.1983   75.2180 C   0  0  0  0  0  0  0  0  0  0  0  0
  -56.2882   -3.5178   76.3617 O   0  0  0  0  0  0  0  0  0  0  0  0
  -55.1985   -1.8873   75.0514 C   0  0  0  0  0  0  0  0  0  0  0  0
  -54.4907   -1.5167   73.9035 C   0  0  0  0  0  0  0  0  0  0  0  0
  -56.5069   -4.4629   76.3413 H   0  0  0  0  0  0  0  0  0  0  0  0
  -54.6168   -0.0643   70.8246 O   0  0  0  0  0  0  0  0  0  0  0  0
  -56.6316    3.1496   68.9481 C   0  0  0  0  0  0  0  0  0  0  0  0
  -55.5233    2.5072   69.7753 C   0  0  0  0  0  0  0  0  0  0  0  0
  -56.1378    1.7634   70.8301 O   0  0  0  0  0  0  0  0  0  0  0  0
  -55.2255    0.9703   71.5928 C   0  0  0  0  0  0  0  0  0  0  0  0
  -54.1923    1.9123   72.2546 C   0  0  0  0  0  0  0  0  0  0  0  0
  -54.8338    2.7627   73.2368 O   0  0  0  0  0  0  0  0  0  0  0  0
  -53.5240    2.8278   71.2266 C   0  0  0  0  0  0  0  0  0  0  0  0
  -52.7239    3.8149   71.8976 O   0  0  0  0  0  0  0  0  0  0  0  0
  -54.5603    3.5462   70.3477 C   0  0  0  0  0  0  0  0  0  0  0  0
  -53.9262    4.2514   69.2749 O   0  0  0  0  0  0  0  0  0  0  0  0
  -55.7809    2.8209   72.9972 H   0  0  0  0  0  0  0  0  0  0  0  0
  -53.2365    4.0651   72.6960 H   0  0  0  0  0  0  0  0  0  0  0  0
  -52.9633    4.2018   69.4169 H   0  0  0  0  0  0  0  0  0  0  0  0
 24 25  1  0  0  0
 25 26  1  0  0  0
 26 27  1  0  0  0
  1  2  1  0  0  0
  2  3  1  0  0  0
  3  4  2  0  0  0
  4  5  1  0  0  0
  4  6  1  0  0  0
  6  7  2  0  0  0
  7  8  1  0  0  0
  7  9  1  0  0  0
  9 10  2  0  0  0
  3 10  1  0  0  0
 10 11  1  0  0  0
 11 12  1  0  0  0
  1 12  1  0  0  0
 12 15  1  0  0  0
 15 16  2  0  0  0
 16 17  1  0  0  0
 17 18  2  0  0  0
 18 19  1  0  0  0
 18 20  1  0  0  0
 20 21  2  0  0  0
 15 21  1  0  0  0
 27 28  1  0  0  0
 28 29  1  0  0  0
 28 30  1  0  0  0
 30 31  1  0  0  0
 30 32  1  0  0  0
 25 32  1  0  0  0
 32 33  1  0  0  0
 27 23  1  0  0  0
  1 23  1  0  0  0
  5 13  1  0  0  0
  8 14  1  0  0  0
 19 22  1  0  0  0
 29 34  1  0  0  0
 31 35  1  0  0  0
 33 36  1  0  0  0
M  END
> <minimizedAffinity>
-8.04594

$$$$
