ligand_2


 11 10  0  0  0  0  0  0  0  0999 V2000
  -47.4114    0.6914   82.0628 C   0  0  0  0  0  0  0  0  0  0  0  0
  -46.8086    0.6586   83.4187 N   0  0  0  0  0  0  0  0  0  0  0  0
  -45.8201    0.4084   83.3171 H   0  0  0  0  0  0  0  0  0  0  0  0
  -47.1986   -0.1402   83.9249 H   0  0  0  0  0  0  0  0  0  0  0  0
  -47.1782   -0.6731   81.3764 C   0  0  0  0  0  0  0  0  0  0  0  0
  -46.1052   -1.2641   81.3788 O   0  0  0  0  0  0  0  0  0  0  0  0
  -48.2757   -1.1886   80.7804 O   0  0  0  0  0  0  0  0  0  0  0  0
  -49.0811   -0.6489   80.8839 H   0  0  0  0  0  0  0  0  0  0  0  0
  -47.1559    3.2304   81.9362 C   0  0  0  0  0  0  0  0  0  0  0  0
  -46.8334    1.8886   81.2722 C   0  0  0  0  0  0  0  0  0  0  0  0
  -47.2626    1.9221   79.8014 C   0  0  0  0  0  0  0  0  0  0  0  0
  9 10  1  0  0  0
 10 11  1  0  0  0
  1  5  1  0  0  0
  5  6  2  0  0  0
  5  7  1  0  0  0
  1  2  1  0  0  0
  1 10  1  0  0  0
  2  3  1  0  0  0
  2  4  1  0  0  0
  7  8  1  0  0  0
M  END
> <minimizedAffinity>
-5.33692

$$$$
ligand_2


 11 10  0  0  0  0  0  0  0  0999 V2000
  -47.9877    1.3370   82.3124 C   0  0  0  0  0  0  0  0  0  0  0  0
  -48.5503    2.1259   83.4367 N   0  0  0  0  0  0  0  0  0  0  0  0
  -47.7857    2.3383   84.0849 H   0  0  0  0  0  0  0  0  0  0  0  0
  -49.1570    1.5133   83.9874 H   0  0  0  0  0  0  0  0  0  0  0  0
  -47.2823    0.0853   82.8806 C   0  0  0  0  0  0  0  0  0  0  0  0
  -47.4381   -1.0462   82.4380 O   0  0  0  0  0  0  0  0  0  0  0  0
  -46.4444    0.3401   83.9095 O   0  0  0  0  0  0  0  0  0  0  0  0
  -46.3692    1.2837   84.1433 H   0  0  0  0  0  0  0  0  0  0  0  0
  -47.2246    3.7226   81.8079 C   0  0  0  0  0  0  0  0  0  0  0  0
  -47.0598    2.2391   81.4652 C   0  0  0  0  0  0  0  0  0  0  0  0
  -47.2134    2.0364   79.9540 C   0  0  0  0  0  0  0  0  0  0  0  0
  9 10  1  0  0  0
 10 11  1  0  0  0
  1  5  1  0  0  0
  5  6  2  0  0  0
  5  7  1  0  0  0
  1  2  1  0  0  0
  1 10  1  0  0  0
  2  3  1  0  0  0
  2  4  1  0  0  0
  7  8  1  0  0  0
M  END
> <minimizedAffinity>
-5.20007

$$$$
ligand_2


 11 10  0  0  0  0  0  0  0  0999 V2000
  -46.9634    1.7564   80.7828 C   0  0  0  0  0  0  0  0  0  0  0  0
  -47.3980    1.8879   79.3698 N   0  0  0  0  0  0  0  0  0  0  0  0
  -48.3646    1.5541   79.3061 H   0  0  0  0  0  0  0  0  0  0  0  0
  -46.8804    1.2063   78.8093 H   0  0  0  0  0  0  0  0  0  0  0  0
  -47.1502    0.2897   81.2313 C   0  0  0  0  0  0  0  0  0  0  0  0
  -48.0957   -0.4122   80.8941 O   0  0  0  0  0  0  0  0  0  0  0  0
  -46.1594   -0.1790   82.0214 O   0  0  0  0  0  0  0  0  0  0  0  0
  -45.4389    0.4575   82.1840 H   0  0  0  0  0  0  0  0  0  0  0  0
  -46.8562    3.9490   82.0901 C   0  0  0  0  0  0  0  0  0  0  0  0
  -47.7362    2.7735   81.6551 C   0  0  0  0  0  0  0  0  0  0  0  0
  -48.4096    2.1487   82.8817 C   0  0  0  0  0  0  0  0  0  0  0  0
  9 10  1  0  0  0
 10 11  1  0  0  0
  1  5  1  0  0  0
  5  6  2  0  0  0
  5  7  1  0  0  0
  1  2  1  0  0  0
  1 10  1  0  0  0
  2  3  1  0  0  0
  2  4  1  0  0  0
  7  8  1  0  0  0
M  END
> <minimizedAffinity>
-4.80652

$$$$
ligand_2


 11 10  0  0  0  0  0  0  0  0999 V2000
  -46.8506   -1.0350   81.6084 C   0  0  0  0  0  0  0  0  0  0  0  0
  -47.5675   -1.3918   82.8581 N   0  0  0  0  0  0  0  0  0  0  0  0
  -48.5728   -1.3092   82.6780 H   0  0  0  0  0  0  0  0  0  0  0  0
  -47.3950   -0.6572   83.5488 H   0  0  0  0  0  0  0  0  0  0  0  0
  -47.2928    0.3763   81.1613 C   0  0  0  0  0  0  0  0  0  0  0  0
  -46.5316    1.3310   81.0626 O   0  0  0  0  0  0  0  0  0  0  0  0
  -48.6057    0.4759   80.8579 O   0  0  0  0  0  0  0  0  0  0  0  0
  -49.1005   -0.3610   80.9314 H   0  0  0  0  0  0  0  0  0  0  0  0
  -48.2348   -3.0762   80.9409 C   0  0  0  0  0  0  0  0  0  0  0  0
  -47.0998   -2.1281   80.5428 C   0  0  0  0  0  0  0  0  0  0  0  0
  -45.8491   -2.9385   80.1855 C   0  0  0  0  0  0  0  0  0  0  0  0
  9 10  1  0  0  0
 10 11  1  0  0  0
  1  5  1  0  0  0
  5  6  2  0  0  0
  5  7  1  0  0  0
  1  2  1  0  0  0
  1 10  1  0  0  0
  2  3  1  0  0  0
  2  4  1  0  0  0
  7  8  1  0  0  0
M  END
> <minimizedAffinity>
-4.71869

$$$$
ligand_2


 11 10  0  0  0  0  0  0  0  0999 V2000
  -47.6135   -2.3312   80.8940 C   0  0  0  0  0  0  0  0  0  0  0  0
  -49.0260   -2.4704   80.4602 N   0  0  0  0  0  0  0  0  0  0  0  0
  -49.1829   -1.8171   79.6865 H   0  0  0  0  0  0  0  0  0  0  0  0
  -49.6278   -2.1010   81.2004 H   0  0  0  0  0  0  0  0  0  0  0  0
  -47.3429   -0.8539   81.2571 C   0  0  0  0  0  0  0  0  0  0  0  0
  -46.3097   -0.4583   81.7830 O   0  0  0  0  0  0  0  0  0  0  0  0
  -48.3426   -0.0088   80.9229 O   0  0  0  0  0  0  0  0  0  0  0  0
  -49.0941   -0.4333   80.4693 H   0  0  0  0  0  0  0  0  0  0  0  0
  -47.3263   -4.0186   78.9971 C   0  0  0  0  0  0  0  0  0  0  0  0
  -46.6800   -2.8777   79.7884 C   0  0  0  0  0  0  0  0  0  0  0  0
  -45.3053   -3.3180   80.3031 C   0  0  0  0  0  0  0  0  0  0  0  0
  9 10  1  0  0  0
 10 11  1  0  0  0
  1  5  1  0  0  0
  5  6  2  0  0  0
  5  7  1  0  0  0
  1  2  1  0  0  0
  1 10  1  0  0  0
  2  3  1  0  0  0
  2  4  1  0  0  0
  7  8  1  0  0  0
M  END
> <minimizedAffinity>
-4.65794

$$$$
