ligand_13


 13 13  0  0  0  0  0  0  0  0999 V2000
  -47.3814   -0.1413   81.4258 C   0  0  0  0  0  0  0  0  0  0  0  0
  -47.2584    0.5791   80.1644 C   0  0  0  0  0  0  0  0  0  0  0  0
  -47.1261    1.8886   79.9371 C   0  0  0  0  0  0  0  0  0  0  0  0
  -47.0758    2.9554   80.8913 C   0  0  0  0  0  0  0  0  0  0  0  0
  -47.5445    2.9480   82.1403 C   0  0  0  0  0  0  0  0  0  0  0  0
  -48.1267    1.8227   82.8914 C   0  0  0  0  0  0  0  0  0  0  0  0
  -48.7742    2.0577   83.9172 O   0  0  0  0  0  0  0  0  0  0  0  0
  -47.8134    0.3895   82.5886 C   0  0  0  0  0  0  0  0  0  0  0  0
  -48.0420   -0.4509   83.6812 O   0  0  0  0  0  0  0  0  0  0  0  0
  -48.4564    0.1276   84.3585 H   0  0  0  0  0  0  0  0  0  0  0  0
  -48.0472   -2.3959   80.3852 C   0  0  0  0  0  0  0  0  0  0  0  0
  -47.0574   -1.6417   81.2824 C   0  0  0  0  0  0  0  0  0  0  0  0
  -45.6088   -1.8938   80.8500 C   0  0  0  0  0  0  0  0  0  0  0  0
 11 12  1  0  0  0
 12 13  1  0  0  0
 12  1  1  0  0  0
  1  2  1  0  0  0
  2  3  2  0  0  0
  3  4  1  0  0  0
  4  5  2  0  0  0
  5  6  1  0  0  0
  6  7  2  0  0  0
  6  8  1  0  0  0
  1  8  2  0  0  0
  8  9  1  0  0  0
  9 10  1  0  0  0
M  END
> <minimizedAffinity>
-5.86813

$$$$
ligand_13


 13 13  0  0  0  0  0  0  0  0999 V2000
  -49.8887   -6.1296   77.6210 C   0  0  0  0  0  0  0  0  0  0  0  0
  -49.4533   -4.9445   78.3498 C   0  0  0  0  0  0  0  0  0  0  0  0
  -49.2799   -4.7632   79.6617 C   0  0  0  0  0  0  0  0  0  0  0  0
  -49.4865   -5.7020   80.7233 C   0  0  0  0  0  0  0  0  0  0  0  0
  -50.2599   -6.7890   80.7046 C   0  0  0  0  0  0  0  0  0  0  0  0
  -51.0042   -7.3617   79.5700 C   0  0  0  0  0  0  0  0  0  0  0  0
  -51.8955   -8.1878   79.7935 O   0  0  0  0  0  0  0  0  0  0  0  0
  -50.6098   -7.1444   78.1414 C   0  0  0  0  0  0  0  0  0  0  0  0
  -51.1028   -8.1390   77.2927 O   0  0  0  0  0  0  0  0  0  0  0  0
  -51.6827   -8.6892   77.8636 H   0  0  0  0  0  0  0  0  0  0  0  0
  -50.0925   -4.8373   75.4080 C   0  0  0  0  0  0  0  0  0  0  0  0
  -49.5241   -6.0690   76.1243 C   0  0  0  0  0  0  0  0  0  0  0  0
  -48.0183   -6.2124   75.8775 C   0  0  0  0  0  0  0  0  0  0  0  0
 11 12  1  0  0  0
 12 13  1  0  0  0
 12  1  1  0  0  0
  1  2  1  0  0  0
  2  3  2  0  0  0
  3  4  1  0  0  0
  4  5  2  0  0  0
  5  6  1  0  0  0
  6  7  2  0  0  0
  6  8  1  0  0  0
  1  8  2  0  0  0
  8  9  1  0  0  0
  9 10  1  0  0  0
M  END
> <minimizedAffinity>
-5.57918

$$$$
ligand_13


 13 13  0  0  0  0  0  0  0  0999 V2000
  -50.9095   -3.2525   72.8115 C   0  0  0  0  0  0  0  0  0  0  0  0
  -50.2940   -3.1523   74.1292 C   0  0  0  0  0  0  0  0  0  0  0  0
  -50.5796   -3.8064   75.2582 C   0  0  0  0  0  0  0  0  0  0  0  0
  -51.5916   -4.7950   75.4806 C   0  0  0  0  0  0  0  0  0  0  0  0
  -52.7055   -4.9878   74.7721 C   0  0  0  0  0  0  0  0  0  0  0  0
  -53.1251   -4.3191   73.5287 C   0  0  0  0  0  0  0  0  0  0  0  0
  -54.3054   -4.4017   73.1724 O   0  0  0  0  0  0  0  0  0  0  0  0
  -52.1569   -3.7041   72.5653 C   0  0  0  0  0  0  0  0  0  0  0  0
  -52.6833   -3.5914   71.2759 O   0  0  0  0  0  0  0  0  0  0  0  0
  -53.6218   -3.8675   71.3646 H   0  0  0  0  0  0  0  0  0  0  0  0
  -50.2620   -1.1950   71.4128 C   0  0  0  0  0  0  0  0  0  0  0  0
  -50.0115   -2.6817   71.6959 C   0  0  0  0  0  0  0  0  0  0  0  0
  -48.5237   -2.9611   71.9351 C   0  0  0  0  0  0  0  0  0  0  0  0
 11 12  1  0  0  0
 12 13  1  0  0  0
 12  1  1  0  0  0
  1  2  1  0  0  0
  2  3  2  0  0  0
  3  4  1  0  0  0
  4  5  2  0  0  0
  5  6  1  0  0  0
  6  7  2  0  0  0
  6  8  1  0  0  0
  1  8  2  0  0  0
  8  9  1  0  0  0
  9 10  1  0  0  0
M  END
> <minimizedAffinity>
-5.44519

$$$$
ligand_13


 13 13  0  0  0  0  0  0  0  0999 V2000
  -50.1781   -5.5882   75.7702 C   0  0  0  0  0  0  0  0  0  0  0  0
  -50.0739   -4.4508   74.8643 C   0  0  0  0  0  0  0  0  0  0  0  0
  -51.0285   -3.6475   74.3873 C   0  0  0  0  0  0  0  0  0  0  0  0
  -52.4376   -3.6952   74.6387 C   0  0  0  0  0  0  0  0  0  0  0  0
  -53.1526   -4.7449   75.0473 C   0  0  0  0  0  0  0  0  0  0  0  0
  -52.6717   -6.0779   75.4487 C   0  0  0  0  0  0  0  0  0  0  0  0
  -53.4780   -7.0120   75.5126 O   0  0  0  0  0  0  0  0  0  0  0  0
  -51.2906   -6.3239   75.9742 C   0  0  0  0  0  0  0  0  0  0  0  0
  -51.2096   -7.4883   76.7422 O   0  0  0  0  0  0  0  0  0  0  0  0
  -52.0931   -7.9083   76.6526 H   0  0  0  0  0  0  0  0  0  0  0  0
  -47.6451   -5.8858   75.4470 C   0  0  0  0  0  0  0  0  0  0  0  0
  -48.8282   -5.9495   76.4214 C   0  0  0  0  0  0  0  0  0  0  0  0
  -48.5495   -5.1375   77.6910 C   0  0  0  0  0  0  0  0  0  0  0  0
 11 12  1  0  0  0
 12 13  1  0  0  0
 12  1  1  0  0  0
  1  2  1  0  0  0
  2  3  2  0  0  0
  3  4  1  0  0  0
  4  5  2  0  0  0
  5  6  1  0  0  0
  6  7  2  0  0  0
  6  8  1  0  0  0
  1  8  2  0  0  0
  8  9  1  0  0  0
  9 10  1  0  0  0
M  END
> <minimizedAffinity>
-5.40944

$$$$
ligand_13


 13 13  0  0  0  0  0  0  0  0999 V2000
  -49.3657   -4.8044   75.6196 C   0  0  0  0  0  0  0  0  0  0  0  0
  -48.1788   -5.5682   75.2550 C   0  0  0  0  0  0  0  0  0  0  0  0
  -47.2861   -5.3501   74.2857 C   0  0  0  0  0  0  0  0  0  0  0  0
  -47.2611   -4.2902   73.3229 C   0  0  0  0  0  0  0  0  0  0  0  0
  -48.2884   -3.5450   72.9114 C   0  0  0  0  0  0  0  0  0  0  0  0
  -49.6733   -3.5410   73.4127 C   0  0  0  0  0  0  0  0  0  0  0  0
  -50.5565   -3.0110   72.7302 O   0  0  0  0  0  0  0  0  0  0  0  0
  -50.0413   -3.9734   74.7989 C   0  0  0  0  0  0  0  0  0  0  0  0
  -51.2577   -3.4324   75.2232 O   0  0  0  0  0  0  0  0  0  0  0  0
  -51.6137   -2.9691   74.4335 H   0  0  0  0  0  0  0  0  0  0  0  0
  -50.3801   -6.5524   77.2086 C   0  0  0  0  0  0  0  0  0  0  0  0
  -49.8551   -5.1200   77.0470 C   0  0  0  0  0  0  0  0  0  0  0  0
  -48.8098   -4.7852   78.1166 C   0  0  0  0  0  0  0  0  0  0  0  0
 11 12  1  0  0  0
 12 13  1  0  0  0
 12  1  1  0  0  0
  1  2  1  0  0  0
  2  3  2  0  0  0
  3  4  1  0  0  0
  4  5  2  0  0  0
  5  6  1  0  0  0
  6  7  2  0  0  0
  6  8  1  0  0  0
  1  8  2  0  0  0
  8  9  1  0  0  0
  9 10  1  0  0  0
M  END
> <minimizedAffinity>
-5.40237

$$$$
