ligand_29


 14 14  0  0  0  0  0  0  0  0999 V2000
  -48.3490   -4.4034   78.6842 C   0  0  0  0  0  0  0  0  0  0  0  0
  -46.9921   -4.0663   78.7606 C   0  0  0  0  0  0  0  0  0  0  0  0
  -46.5718   -3.0248   79.5929 C   0  0  0  0  0  0  0  0  0  0  0  0
  -47.5013   -2.3166   80.3672 C   0  0  0  0  0  0  0  0  0  0  0  0
  -48.8585   -2.6640   80.3002 C   0  0  0  0  0  0  0  0  0  0  0  0
  -49.2812   -3.7023   79.4605 C   0  0  0  0  0  0  0  0  0  0  0  0
  -48.7447   -5.5110   77.7773 C   0  0  0  0  0  0  0  0  0  0  0  0
  -48.0902   -5.8505   76.8047 O   0  0  0  0  0  0  0  0  0  0  0  0
  -50.5834   -6.8085   77.1527 C   0  0  0  0  0  0  0  0  0  0  0  0
  -49.9387   -6.0268   78.1602 O   0  0  0  0  0  0  0  0  0  0  0  0
  -46.9954   -1.2152   81.2322 C   0  0  0  0  0  0  0  0  0  0  0  0
  -45.8278   -1.1119   81.5739 O   0  0  0  0  0  0  0  0  0  0  0  0
  -47.9987   -0.3671   81.5689 O   0  0  0  0  0  0  0  0  0  0  0  0
  -47.9245    0.9009   80.9147 C   0  0  0  0  0  0  0  0  0  0  0  0
  9 10  1  0  0  0
 10  7  1  0  0  0
  7  8  2  0  0  0
  7  1  1  0  0  0
  1  2  2  0  0  0
  2  3  1  0  0  0
  3  4  2  0  0  0
  4 11  1  0  0  0
 11 12  2  0  0  0
 11 13  1  0  0  0
 13 14  1  0  0  0
  4  5  1  0  0  0
  5  6  2  0  0  0
  1  6  1  0  0  0
M  END
> <minimizedAffinity>
-5.78532

$$$$
ligand_29


 14 14  0  0  0  0  0  0  0  0999 V2000
  -48.4139   -4.3235   78.8080 C   0  0  0  0  0  0  0  0  0  0  0  0
  -49.3408   -3.8438   79.7415 C   0  0  0  0  0  0  0  0  0  0  0  0
  -48.9328   -2.9681   80.7518 C   0  0  0  0  0  0  0  0  0  0  0  0
  -47.5965   -2.5526   80.8333 C   0  0  0  0  0  0  0  0  0  0  0  0
  -46.6716   -3.0229   79.8897 C   0  0  0  0  0  0  0  0  0  0  0  0
  -47.0782   -3.9065   78.8818 C   0  0  0  0  0  0  0  0  0  0  0  0
  -48.8961   -5.2595   77.7607 C   0  0  0  0  0  0  0  0  0  0  0  0
  -49.8063   -6.0536   77.9355 O   0  0  0  0  0  0  0  0  0  0  0  0
  -48.1835   -6.2766   75.7827 C   0  0  0  0  0  0  0  0  0  0  0  0
  -48.1481   -5.1318   76.6371 O   0  0  0  0  0  0  0  0  0  0  0  0
  -47.2200   -1.6217   81.9329 C   0  0  0  0  0  0  0  0  0  0  0  0
  -47.6803   -1.6941   83.0614 O   0  0  0  0  0  0  0  0  0  0  0  0
  -46.3114   -0.7110   81.5035 O   0  0  0  0  0  0  0  0  0  0  0  0
  -46.8777    0.5622   81.1875 C   0  0  0  0  0  0  0  0  0  0  0  0
  9 10  1  0  0  0
 10  7  1  0  0  0
  7  8  2  0  0  0
  7  1  1  0  0  0
  1  2  2  0  0  0
  2  3  1  0  0  0
  3  4  2  0  0  0
  4 11  1  0  0  0
 11 12  2  0  0  0
 11 13  1  0  0  0
 13 14  1  0  0  0
  4  5  1  0  0  0
  5  6  2  0  0  0
  1  6  1  0  0  0
M  END
> <minimizedAffinity>
-5.75162

$$$$
ligand_29


 14 14  0  0  0  0  0  0  0  0999 V2000
  -47.5723   -2.4536   80.6909 C   0  0  0  0  0  0  0  0  0  0  0  0
  -48.8981   -2.8852   80.5617 C   0  0  0  0  0  0  0  0  0  0  0  0
  -49.2402   -3.8237   79.5838 C   0  0  0  0  0  0  0  0  0  0  0  0
  -48.2592   -4.3501   78.7320 C   0  0  0  0  0  0  0  0  0  0  0  0
  -46.9292   -3.9272   78.8711 C   0  0  0  0  0  0  0  0  0  0  0  0
  -46.5871   -2.9811   79.8456 C   0  0  0  0  0  0  0  0  0  0  0  0
  -47.2630   -1.4478   81.7389 C   0  0  0  0  0  0  0  0  0  0  0  0
  -47.5548   -1.5905   82.9153 O   0  0  0  0  0  0  0  0  0  0  0  0
  -47.6007    0.6232   80.7132 C   0  0  0  0  0  0  0  0  0  0  0  0
  -46.6757   -0.3585   81.1848 O   0  0  0  0  0  0  0  0  0  0  0  0
  -48.6836   -5.3437   77.7074 C   0  0  0  0  0  0  0  0  0  0  0  0
  -48.0390   -5.5861   76.6992 O   0  0  0  0  0  0  0  0  0  0  0  0
  -49.8584   -5.9244   78.0568 O   0  0  0  0  0  0  0  0  0  0  0  0
  -50.3767   -6.8155   77.0675 C   0  0  0  0  0  0  0  0  0  0  0  0
  9 10  1  0  0  0
 10  7  1  0  0  0
  7  8  2  0  0  0
  7  1  1  0  0  0
  1  2  2  0  0  0
  2  3  1  0  0  0
  3  4  2  0  0  0
  4 11  1  0  0  0
 11 12  2  0  0  0
 11 13  1  0  0  0
 13 14  1  0  0  0
  4  5  1  0  0  0
  5  6  2  0  0  0
  1  6  1  0  0  0
M  END
> <minimizedAffinity>
-5.74312

$$$$
ligand_29


 14 14  0  0  0  0  0  0  0  0999 V2000
  -50.1020   -5.3663   76.1776 C   0  0  0  0  0  0  0  0  0  0  0  0
  -50.2276   -4.0722   75.6579 C   0  0  0  0  0  0  0  0  0  0  0  0
  -51.3967   -3.6915   74.9929 C   0  0  0  0  0  0  0  0  0  0  0  0
  -52.4581   -4.5962   74.8503 C   0  0  0  0  0  0  0  0  0  0  0  0
  -52.3366   -5.8878   75.3831 C   0  0  0  0  0  0  0  0  0  0  0  0
  -51.1624   -6.2723   76.0427 C   0  0  0  0  0  0  0  0  0  0  0  0
  -48.8358   -5.7239   76.8664 C   0  0  0  0  0  0  0  0  0  0  0  0
  -47.9404   -6.3638   76.3386 O   0  0  0  0  0  0  0  0  0  0  0  0
  -47.6904   -4.5683   78.5419 C   0  0  0  0  0  0  0  0  0  0  0  0
  -48.8609   -5.2882   78.1500 O   0  0  0  0  0  0  0  0  0  0  0  0
  -53.6768   -4.1353   74.1296 C   0  0  0  0  0  0  0  0  0  0  0  0
  -53.8861   -4.3651   72.9488 O   0  0  0  0  0  0  0  0  0  0  0  0
  -54.4967   -3.4457   74.9612 O   0  0  0  0  0  0  0  0  0  0  0  0
  -55.6794   -4.1597   75.3259 C   0  0  0  0  0  0  0  0  0  0  0  0
  9 10  1  0  0  0
 10  7  1  0  0  0
  7  8  2  0  0  0
  7  1  1  0  0  0
  1  2  2  0  0  0
  2  3  1  0  0  0
  3  4  2  0  0  0
  4 11  1  0  0  0
 11 12  2  0  0  0
 11 13  1  0  0  0
 13 14  1  0  0  0
  4  5  1  0  0  0
  5  6  2  0  0  0
  1  6  1  0  0  0
M  END
> <minimizedAffinity>
-5.36857

$$$$
ligand_29


 14 14  0  0  0  0  0  0  0  0999 V2000
  -52.6124   -4.5326   74.7075 C   0  0  0  0  0  0  0  0  0  0  0  0
  -52.4474   -5.7741   75.3337 C   0  0  0  0  0  0  0  0  0  0  0  0
  -51.2112   -6.1260   75.8834 C   0  0  0  0  0  0  0  0  0  0  0  0
  -50.1295   -5.2363   75.8239 C   0  0  0  0  0  0  0  0  0  0  0  0
  -50.2997   -3.9876   75.2085 C   0  0  0  0  0  0  0  0  0  0  0  0
  -51.5358   -3.6376   74.6507 C   0  0  0  0  0  0  0  0  0  0  0  0
  -53.9426   -4.2112   74.1308 C   0  0  0  0  0  0  0  0  0  0  0  0
  -54.1648   -4.1749   72.9312 O   0  0  0  0  0  0  0  0  0  0  0  0
  -55.2078   -2.5433   75.1661 C   0  0  0  0  0  0  0  0  0  0  0  0
  -54.8240   -3.9188   75.1187 O   0  0  0  0  0  0  0  0  0  0  0  0
  -48.8365   -5.6674   76.4234 C   0  0  0  0  0  0  0  0  0  0  0  0
  -47.8983   -6.0886   75.7654 O   0  0  0  0  0  0  0  0  0  0  0  0
  -48.8578   -5.5210   77.7716 O   0  0  0  0  0  0  0  0  0  0  0  0
  -47.7771   -4.7385   78.2827 C   0  0  0  0  0  0  0  0  0  0  0  0
  9 10  1  0  0  0
 10  7  1  0  0  0
  7  8  2  0  0  0
  7  1  1  0  0  0
  1  2  2  0  0  0
  2  3  1  0  0  0
  3  4  2  0  0  0
  4 11  1  0  0  0
 11 12  2  0  0  0
 11 13  1  0  0  0
 13 14  1  0  0  0
  4  5  1  0  0  0
  5  6  2  0  0  0
  1  6  1  0  0  0
M  END
> <minimizedAffinity>
-5.34676

$$$$
