ligand_20


 36 41  0  0  0  0  0  0  0  0999 V2000
  -48.9584   -1.3600   71.8889 C   0  0  0  0  0  0  0  0  0  0  0  0
  -49.9318   -2.0706   72.8315 C   0  0  0  0  0  0  0  0  0  0  0  0
  -51.3650   -1.8037   72.4033 C   0  0  0  0  0  0  0  0  0  0  0  0
  -52.0237   -3.1698   72.1439 C   0  0  0  0  0  0  0  0  0  0  0  0
  -52.5823   -3.2153   70.7779 O   0  0  0  0  0  0  0  0  0  0  0  0
  -53.7333   -2.4152   70.8944 C   0  0  0  0  0  0  0  0  0  0  0  0
  -54.9450   -2.3760   69.9915 C   0  0  0  0  0  0  0  0  0  0  0  0
  -55.8290   -1.3526   70.8444 C   0  0  0  0  0  0  0  0  0  0  0  0
  -55.5271    0.0416   70.2418 C   0  0  0  0  0  0  0  0  0  0  0  0
  -56.6317    0.4673   69.2737 C   0  0  0  0  0  0  0  0  0  0  0  0
  -56.0320    1.4339   68.2661 C   0  0  0  0  0  0  0  0  0  0  0  0
  -55.4198    2.6485   68.9655 C   0  0  0  0  0  0  0  0  0  0  0  0
  -54.7941    3.5821   67.9272 C   0  0  0  0  0  0  0  0  0  0  0  0
  -54.4539    4.9279   68.5561 C   0  0  0  0  0  0  0  0  0  0  0  0
  -53.6805    5.6941   67.6355 O   0  0  0  0  0  0  0  0  0  0  0  0
  -53.6830    4.8110   69.8743 C   0  0  0  0  0  0  0  0  0  0  0  0
  -54.2113    3.7293   70.8415 C   0  0  0  0  0  0  0  0  0  0  0  0
  -54.4302    2.3450   70.1572 C   0  0  0  0  0  0  0  0  0  0  0  0
  -53.0303    1.8518   69.6768 C   0  0  0  0  0  0  0  0  0  0  0  0
  -55.0994    1.2401   71.1214 C   0  0  0  0  0  0  0  0  0  0  0  0
  -54.2221    0.7394   72.2857 C   0  0  0  0  0  0  0  0  0  0  0  0
  -53.9172    1.8017   73.1877 O   0  0  0  0  0  0  0  0  0  0  0  0
  -54.9012   -0.3662   73.1017 C   0  0  0  0  0  0  0  0  0  0  0  0
  -55.4102   -1.6205   72.3604 C   0  0  0  0  0  0  0  0  0  0  0  0
  -56.6319   -2.1458   73.1525 C   0  0  0  0  0  0  0  0  0  0  0  0
  -54.4250   -2.8092   72.1821 C   0  0  0  0  0  0  0  0  0  0  0  0
  -53.3089   -3.4534   73.0109 C   0  0  0  0  0  0  0  0  0  0  0  0
  -53.2976   -3.1867   74.5008 C   0  0  0  0  0  0  0  0  0  0  0  0
  -53.5473   -4.8995   72.9257 O   0  0  0  0  0  0  0  0  0  0  0  0
  -51.0017   -4.1521   72.2936 O   0  0  0  0  0  0  0  0  0  0  0  0
  -49.8291   -3.6015   72.9104 C   0  0  0  0  0  0  0  0  0  0  0  0
  -48.6097   -4.2129   72.2183 C   0  0  0  0  0  0  0  0  0  0  0  0
  -49.8265   -4.0627   74.3754 C   0  0  0  0  0  0  0  0  0  0  0  0
  -54.1167    5.6481   66.7671 H   0  0  0  0  0  0  0  0  0  0  0  0
  -54.7508    2.1561   73.5404 H   0  0  0  0  0  0  0  0  0  0  0  0
  -54.4121   -5.1032   73.3090 H   0  0  0  0  0  0  0  0  0  0  0  0
  2  3  1  0  0  0
  3  4  1  0  0  0
  4  5  1  0  0  0
  5  6  1  0  0  0
  6  7  1  0  0  0
  7  8  1  0  0  0
  8  9  1  0  0  0
  9 10  1  0  0  0
 10 11  1  0  0  0
 11 12  1  0  0  0
 12 13  1  0  0  0
 13 14  1  0  0  0
 14 16  1  0  0  0
 16 17  1  0  0  0
 17 18  1  0  0  0
 12 18  1  0  0  0
 18 20  1  0  0  0
  9 20  1  0  0  0
 20 21  1  0  0  0
 21 23  1  0  0  0
 23 24  1  0  0  0
  8 24  1  0  0  0
 24 26  1  0  0  0
  6 26  1  0  0  0
 26 27  1  0  0  0
  4 27  1  0  0  0
  4 30  1  0  0  0
 30 31  1  0  0  0
  2 31  1  0  0  0
 18 19  1  0  0  0
 21 22  1  0  0  0
 24 25  1  0  0  0
 31 32  1  0  0  0
 31 33  1  0  0  0
 14 15  1  0  0  0
 27 29  1  0  0  0
 27 28  1  0  0  0
  2  1  1  0  0  0
 15 34  1  0  0  0
 22 35  1  0  0  0
 29 36  1  0  0  0
M  END
> <minimizedAffinity>
-6.54874

$$$$
ligand_20


 36 41  0  0  0  0  0  0  0  0999 V2000
  -52.6101    4.1511   71.8083 C   0  0  0  0  0  0  0  0  0  0  0  0
  -53.2576    3.8922   70.4464 C   0  0  0  0  0  0  0  0  0  0  0  0
  -53.3792    2.3979   70.1996 C   0  0  0  0  0  0  0  0  0  0  0  0
  -54.8691    2.0966   69.9611 C   0  0  0  0  0  0  0  0  0  0  0  0
  -55.3366    1.0599   70.9028 O   0  0  0  0  0  0  0  0  0  0  0  0
  -54.7692   -0.1117   70.3700 C   0  0  0  0  0  0  0  0  0  0  0  0
  -55.1751   -1.5471   70.6150 C   0  0  0  0  0  0  0  0  0  0  0  0
  -54.1728   -2.2444   69.5829 C   0  0  0  0  0  0  0  0  0  0  0  0
  -52.9246   -2.6165   70.4205 C   0  0  0  0  0  0  0  0  0  0  0  0
  -52.9564   -4.0927   70.8188 C   0  0  0  0  0  0  0  0  0  0  0  0
  -52.1520   -4.2557   72.0977 C   0  0  0  0  0  0  0  0  0  0  0  0
  -50.7138   -3.7709   71.9090 C   0  0  0  0  0  0  0  0  0  0  0  0
  -49.9430   -3.9149   73.2230 C   0  0  0  0  0  0  0  0  0  0  0  0
  -48.4485   -3.7315   72.9876 C   0  0  0  0  0  0  0  0  0  0  0  0
  -47.7816   -3.6525   74.2453 O   0  0  0  0  0  0  0  0  0  0  0  0
  -48.1059   -2.4856   72.1656 C   0  0  0  0  0  0  0  0  0  0  0  0
  -49.0154   -2.2456   70.9410 C   0  0  0  0  0  0  0  0  0  0  0  0
  -50.5360   -2.3359   71.2759 C   0  0  0  0  0  0  0  0  0  0  0  0
  -50.8468   -1.1835   72.2804 C   0  0  0  0  0  0  0  0  0  0  0  0
  -51.4956   -2.2130   69.9866 C   0  0  0  0  0  0  0  0  0  0  0  0
  -51.5340   -0.8324   69.3024 C   0  0  0  0  0  0  0  0  0  0  0  0
  -50.2534   -0.4884   68.7761 O   0  0  0  0  0  0  0  0  0  0  0  0
  -52.5305   -0.7789   68.1390 C   0  0  0  0  0  0  0  0  0  0  0  0
  -53.9964   -1.1805   68.4071 C   0  0  0  0  0  0  0  0  0  0  0  0
  -54.5500   -1.7682   67.0864 C   0  0  0  0  0  0  0  0  0  0  0  0
  -54.9806   -0.0710   68.8714 C   0  0  0  0  0  0  0  0  0  0  0  0
  -55.1872    1.4179   68.5747 C   0  0  0  0  0  0  0  0  0  0  0  0
  -54.5859    1.9697   67.2999 C   0  0  0  0  0  0  0  0  0  0  0  0
  -56.6318    1.5753   68.3656 O   0  0  0  0  0  0  0  0  0  0  0  0
  -55.5735    3.3165   70.1784 O   0  0  0  0  0  0  0  0  0  0  0  0
  -54.6791    4.4368   70.2387 C   0  0  0  0  0  0  0  0  0  0  0  0
  -55.1865    5.3778   71.3327 C   0  0  0  0  0  0  0  0  0  0  0  0
  -54.7793    5.1718   68.8939 C   0  0  0  0  0  0  0  0  0  0  0  0
  -48.1107   -4.3772   74.8049 H   0  0  0  0  0  0  0  0  0  0  0  0
  -49.9950   -1.1639   68.1266 H   0  0  0  0  0  0  0  0  0  0  0  0
  -56.9045    1.0395   67.6073 H   0  0  0  0  0  0  0  0  0  0  0  0
  2  3  1  0  0  0
  3  4  1  0  0  0
  4  5  1  0  0  0
  5  6  1  0  0  0
  6  7  1  0  0  0
  7  8  1  0  0  0
  8  9  1  0  0  0
  9 10  1  0  0  0
 10 11  1  0  0  0
 11 12  1  0  0  0
 12 13  1  0  0  0
 13 14  1  0  0  0
 14 16  1  0  0  0
 16 17  1  0  0  0
 17 18  1  0  0  0
 12 18  1  0  0  0
 18 20  1  0  0  0
  9 20  1  0  0  0
 20 21  1  0  0  0
 21 23  1  0  0  0
 23 24  1  0  0  0
  8 24  1  0  0  0
 24 26  1  0  0  0
  6 26  1  0  0  0
 26 27  1  0  0  0
  4 27  1  0  0  0
  4 30  1  0  0  0
 30 31  1  0  0  0
  2 31  1  0  0  0
 18 19  1  0  0  0
 21 22  1  0  0  0
 24 25  1  0  0  0
 31 32  1  0  0  0
 31 33  1  0  0  0
 14 15  1  0  0  0
 27 29  1  0  0  0
 27 28  1  0  0  0
  2  1  1  0  0  0
 15 34  1  0  0  0
 22 35  1  0  0  0
 29 36  1  0  0  0
M  END
> <minimizedAffinity>
-6.49802

$$$$
ligand_20


 36 41  0  0  0  0  0  0  0  0999 V2000
  -50.0741   -1.3801   73.3737 C   0  0  0  0  0  0  0  0  0  0  0  0
  -50.5913   -2.3056   72.2706 C   0  0  0  0  0  0  0  0  0  0  0  0
  -51.5579   -1.5568   71.3687 C   0  0  0  0  0  0  0  0  0  0  0  0
  -51.0003   -1.6395   69.9370 C   0  0  0  0  0  0  0  0  0  0  0  0
  -50.8440   -0.2845   69.3717 O   0  0  0  0  0  0  0  0  0  0  0  0
  -52.1724    0.0807   69.0883 C   0  0  0  0  0  0  0  0  0  0  0  0
  -52.6709    1.1546   68.1484 C   0  0  0  0  0  0  0  0  0  0  0  0
  -54.2369    0.8605   68.2799 C   0  0  0  0  0  0  0  0  0  0  0  0
  -54.7360    1.8175   69.3903 C   0  0  0  0  0  0  0  0  0  0  0  0
  -55.3943    3.0580   68.7848 C   0  0  0  0  0  0  0  0  0  0  0  0
  -55.2686    4.1963   69.7837 C   0  0  0  0  0  0  0  0  0  0  0  0
  -55.9168    3.8302   71.1197 C   0  0  0  0  0  0  0  0  0  0  0  0
  -55.7411    4.9814   72.1123 C   0  0  0  0  0  0  0  0  0  0  0  0
  -56.6296    4.7737   73.3329 C   0  0  0  0  0  0  0  0  0  0  0  0
  -56.2890    5.7340   74.3302 O   0  0  0  0  0  0  0  0  0  0  0  0
  -56.5217    3.3710   73.9379 C   0  0  0  0  0  0  0  0  0  0  0  0
  -56.5099    2.2194   72.9091 C   0  0  0  0  0  0  0  0  0  0  0  0
  -55.4959    2.4435   71.7454 C   0  0  0  0  0  0  0  0  0  0  0  0
  -54.0730    2.4696   72.3845 C   0  0  0  0  0  0  0  0  0  0  0  0
  -55.5607    1.3132   70.5980 C   0  0  0  0  0  0  0  0  0  0  0  0
  -55.0743   -0.0915   71.0053 C   0  0  0  0  0  0  0  0  0  0  0  0
  -55.8987   -0.6382   72.0333 O   0  0  0  0  0  0  0  0  0  0  0  0
  -55.0915   -1.0828   69.8364 C   0  0  0  0  0  0  0  0  0  0  0  0
  -54.3339   -0.7099   68.5446 C   0  0  0  0  0  0  0  0  0  0  0  0
  -55.0823   -1.3897   67.3725 C   0  0  0  0  0  0  0  0  0  0  0  0
  -52.8369   -1.1138   68.4375 C   0  0  0  0  0  0  0  0  0  0  0  0
  -51.9768   -2.2983   68.8900 C   0  0  0  0  0  0  0  0  0  0  0  0
  -52.6850   -3.5951   69.2186 C   0  0  0  0  0  0  0  0  0  0  0  0
  -51.1523   -2.6463   67.7262 O   0  0  0  0  0  0  0  0  0  0  0  0
  -49.7338   -2.2872   70.0277 O   0  0  0  0  0  0  0  0  0  0  0  0
  -49.5453   -2.8964   71.3129 C   0  0  0  0  0  0  0  0  0  0  0  0
  -48.0871   -2.6792   71.7205 C   0  0  0  0  0  0  0  0  0  0  0  0
  -49.7715   -4.4055   71.1385 C   0  0  0  0  0  0  0  0  0  0  0  0
  -56.2319    6.6049   73.9002 H   0  0  0  0  0  0  0  0  0  0  0  0
  -56.8101   -0.6958   71.7002 H   0  0  0  0  0  0  0  0  0  0  0  0
  -51.7284   -2.9083   66.9941 H   0  0  0  0  0  0  0  0  0  0  0  0
  2  3  1  0  0  0
  3  4  1  0  0  0
  4  5  1  0  0  0
  5  6  1  0  0  0
  6  7  1  0  0  0
  7  8  1  0  0  0
  8  9  1  0  0  0
  9 10  1  0  0  0
 10 11  1  0  0  0
 11 12  1  0  0  0
 12 13  1  0  0  0
 13 14  1  0  0  0
 14 16  1  0  0  0
 16 17  1  0  0  0
 17 18  1  0  0  0
 12 18  1  0  0  0
 18 20  1  0  0  0
  9 20  1  0  0  0
 20 21  1  0  0  0
 21 23  1  0  0  0
 23 24  1  0  0  0
  8 24  1  0  0  0
 24 26  1  0  0  0
  6 26  1  0  0  0
 26 27  1  0  0  0
  4 27  1  0  0  0
  4 30  1  0  0  0
 30 31  1  0  0  0
  2 31  1  0  0  0
 18 19  1  0  0  0
 21 22  1  0  0  0
 24 25  1  0  0  0
 31 32  1  0  0  0
 31 33  1  0  0  0
 14 15  1  0  0  0
 27 29  1  0  0  0
 27 28  1  0  0  0
  2  1  1  0  0  0
 15 34  1  0  0  0
 22 35  1  0  0  0
 29 36  1  0  0  0
M  END
> <minimizedAffinity>
-4.21386

$$$$
