ligand_32


 16 16  0  0  0  0  0  0  0  0999 V2000
  -56.5179    6.1080   76.9945 C   0  0  0  0  0  0  0  0  0  0  0  0
  -55.2897    5.5538   76.4276 N   0  0  0  0  0  0  0  0  0  0  0  0
  -55.4041    5.3571   74.9709 C   0  0  0  0  0  0  0  0  0  0  0  0
  -55.3210    6.6496   74.1449 C   0  0  0  0  0  0  0  0  0  0  0  0
  -55.3163    6.3399   72.7482 O   0  0  0  0  0  0  0  0  0  0  0  0
  -54.0422    7.4122   74.4982 C   0  0  0  0  0  0  0  0  0  0  0  0
  -54.0030    8.6603   73.7866 O   0  0  0  0  0  0  0  0  0  0  0  0
  -53.9317    7.6504   76.0113 C   0  0  0  0  0  0  0  0  0  0  0  0
  -52.6824    8.2934   76.3161 O   0  0  0  0  0  0  0  0  0  0  0  0
  -54.0570    6.3049   76.7753 C   0  0  0  0  0  0  0  0  0  0  0  0
  -54.9755    7.1336   72.2918 H   0  0  0  0  0  0  0  0  0  0  0  0
  -54.6271    9.2780   74.2154 H   0  0  0  0  0  0  0  0  0  0  0  0
  -52.2417    8.5040   75.4698 H   0  0  0  0  0  0  0  0  0  0  0  0
  -53.8565    6.5067   78.2993 C   0  0  0  0  0  0  0  0  0  0  0  0
  -53.9344    7.8809   78.6750 O   0  0  0  0  0  0  0  0  0  0  0  0
  -54.7263    8.2486   78.2260 H   0  0  0  0  0  0  0  0  0  0  0  0
  1  2  1  0  0  0
  2  3  1  0  0  0
  3  4  1  0  0  0
  4  5  1  0  0  0
  4  6  1  0  0  0
  6  8  1  0  0  0
  8  9  1  0  0  0
  8 10  1  0  0  0
  2 10  1  0  0  0
 14 15  1  0  0  0
  6  7  1  0  0  0
 10 14  1  0  0  0
  5 11  1  0  0  0
  7 12  1  0  0  0
  9 13  1  0  0  0
 15 16  1  0  0  0
M  END
> <minimizedAffinity>
-5.27205

$$$$
ligand_32


 16 16  0  0  0  0  0  0  0  0999 V2000
  -54.3224    5.4113   74.6236 C   0  0  0  0  0  0  0  0  0  0  0  0
  -55.3855    5.8667   75.5179 N   0  0  0  0  0  0  0  0  0  0  0  0
  -55.3945    5.1076   76.7818 C   0  0  0  0  0  0  0  0  0  0  0  0
  -54.2721    5.4856   77.7602 C   0  0  0  0  0  0  0  0  0  0  0  0
  -54.4429    4.7868   78.9966 O   0  0  0  0  0  0  0  0  0  0  0  0
  -54.2964    6.9928   78.0234 C   0  0  0  0  0  0  0  0  0  0  0  0
  -53.1975    7.3599   78.8741 O   0  0  0  0  0  0  0  0  0  0  0  0
  -54.2537    7.7916   76.7125 C   0  0  0  0  0  0  0  0  0  0  0  0
  -54.3620    9.1978   76.9918 O   0  0  0  0  0  0  0  0  0  0  0  0
  -55.3956    7.3303   75.7676 C   0  0  0  0  0  0  0  0  0  0  0  0
  -53.9053    5.2635   79.6585 H   0  0  0  0  0  0  0  0  0  0  0  0
  -52.3792    7.3500   78.3401 H   0  0  0  0  0  0  0  0  0  0  0  0
  -54.3480    9.3105   77.9623 H   0  0  0  0  0  0  0  0  0  0  0  0
  -55.4309    8.1851   74.4746 C   0  0  0  0  0  0  0  0  0  0  0  0
  -54.1352    8.6525   74.1031 O   0  0  0  0  0  0  0  0  0  0  0  0
  -53.5301    7.8823   74.1721 H   0  0  0  0  0  0  0  0  0  0  0  0
  1  2  1  0  0  0
  2  3  1  0  0  0
  3  4  1  0  0  0
  4  5  1  0  0  0
  4  6  1  0  0  0
  6  8  1  0  0  0
  8  9  1  0  0  0
  8 10  1  0  0  0
  2 10  1  0  0  0
 14 15  1  0  0  0
  6  7  1  0  0  0
 10 14  1  0  0  0
  5 11  1  0  0  0
  7 12  1  0  0  0
  9 13  1  0  0  0
 15 16  1  0  0  0
M  END
> <minimizedAffinity>
-4.95473

$$$$
ligand_32


 16 16  0  0  0  0  0  0  0  0999 V2000
  -55.4252    8.4789   74.9093 C   0  0  0  0  0  0  0  0  0  0  0  0
  -54.0839    7.9009   74.9731 N   0  0  0  0  0  0  0  0  0  0  0  0
  -53.4678    8.1026   76.2973 C   0  0  0  0  0  0  0  0  0  0  0  0
  -54.0219    7.1918   77.4034 C   0  0  0  0  0  0  0  0  0  0  0  0
  -53.2769    7.3769   78.6105 O   0  0  0  0  0  0  0  0  0  0  0  0
  -53.9257    5.7276   76.9691 C   0  0  0  0  0  0  0  0  0  0  0  0
  -54.5176    4.8800   77.9677 O   0  0  0  0  0  0  0  0  0  0  0  0
  -54.5945    5.5024   75.6052 C   0  0  0  0  0  0  0  0  0  0  0  0
  -54.4133    4.1379   75.1900 O   0  0  0  0  0  0  0  0  0  0  0  0
  -54.0052    6.4791   74.5525 C   0  0  0  0  0  0  0  0  0  0  0  0
  -53.4623    6.5979   79.1702 H   0  0  0  0  0  0  0  0  0  0  0  0
  -55.4893    4.9565   77.8985 H   0  0  0  0  0  0  0  0  0  0  0  0
  -53.9805    3.6585   75.9233 H   0  0  0  0  0  0  0  0  0  0  0  0
  -54.5984    6.2093   73.1458 C   0  0  0  0  0  0  0  0  0  0  0  0
  -53.6337    6.3925   72.1108 O   0  0  0  0  0  0  0  0  0  0  0  0
  -52.8193    5.9284   72.4029 H   0  0  0  0  0  0  0  0  0  0  0  0
  1  2  1  0  0  0
  2  3  1  0  0  0
  3  4  1  0  0  0
  4  5  1  0  0  0
  4  6  1  0  0  0
  6  8  1  0  0  0
  8  9  1  0  0  0
  8 10  1  0  0  0
  2 10  1  0  0  0
 14 15  1  0  0  0
  6  7  1  0  0  0
 10 14  1  0  0  0
  5 11  1  0  0  0
  7 12  1  0  0  0
  9 13  1  0  0  0
 15 16  1  0  0  0
M  END
> <minimizedAffinity>
-4.79290

$$$$
ligand_32


 16 16  0  0  0  0  0  0  0  0999 V2000
  -48.9800   -2.5676   71.9650 C   0  0  0  0  0  0  0  0  0  0  0  0
  -50.2208   -1.8324   72.2037 N   0  0  0  0  0  0  0  0  0  0  0  0
  -50.6829   -1.1375   70.9883 C   0  0  0  0  0  0  0  0  0  0  0  0
  -51.3128   -2.0555   69.9298 C   0  0  0  0  0  0  0  0  0  0  0  0
  -51.8382   -1.2744   68.8527 O   0  0  0  0  0  0  0  0  0  0  0  0
  -52.4419   -2.8759   70.5575 C   0  0  0  0  0  0  0  0  0  0  0  0
  -52.9781   -3.7933   69.5896 O   0  0  0  0  0  0  0  0  0  0  0  0
  -51.9601   -3.6295   71.8058 C   0  0  0  0  0  0  0  0  0  0  0  0
  -53.0627   -4.3212   72.4165 O   0  0  0  0  0  0  0  0  0  0  0  0
  -51.3090   -2.6406   72.8096 C   0  0  0  0  0  0  0  0  0  0  0  0
  -52.4640   -1.8520   68.3739 H   0  0  0  0  0  0  0  0  0  0  0  0
  -52.3462   -4.5309   69.4828 H   0  0  0  0  0  0  0  0  0  0  0  0
  -53.8403   -4.2145   71.8345 H   0  0  0  0  0  0  0  0  0  0  0  0
  -50.8972   -3.3628   74.1183 C   0  0  0  0  0  0  0  0  0  0  0  0
  -51.9246   -3.3124   75.1069 O   0  0  0  0  0  0  0  0  0  0  0  0
  -52.7617   -3.5495   74.6519 H   0  0  0  0  0  0  0  0  0  0  0  0
  1  2  1  0  0  0
  2  3  1  0  0  0
  3  4  1  0  0  0
  4  5  1  0  0  0
  4  6  1  0  0  0
  6  8  1  0  0  0
  8  9  1  0  0  0
  8 10  1  0  0  0
  2 10  1  0  0  0
 14 15  1  0  0  0
  6  7  1  0  0  0
 10 14  1  0  0  0
  5 11  1  0  0  0
  7 12  1  0  0  0
  9 13  1  0  0  0
 15 16  1  0  0  0
M  END
> <minimizedAffinity>
-4.62199

$$$$
ligand_32


 16 16  0  0  0  0  0  0  0  0999 V2000
  -53.9805   -2.3041   71.3327 C   0  0  0  0  0  0  0  0  0  0  0  0
  -53.0258   -3.4091   71.4025 N   0  0  0  0  0  0  0  0  0  0  0  0
  -51.8453   -3.1615   70.5547 C   0  0  0  0  0  0  0  0  0  0  0  0
  -50.8539   -2.1366   71.1262 C   0  0  0  0  0  0  0  0  0  0  0  0
  -49.6917   -2.0621   70.2955 O   0  0  0  0  0  0  0  0  0  0  0  0
  -50.4389   -2.5465   72.5410 C   0  0  0  0  0  0  0  0  0  0  0  0
  -49.5752   -1.5471   73.1077 O   0  0  0  0  0  0  0  0  0  0  0  0
  -51.6628   -2.7743   73.4402 C   0  0  0  0  0  0  0  0  0  0  0  0
  -51.2407   -3.2377   74.7341 O   0  0  0  0  0  0  0  0  0  0  0  0
  -52.6290   -3.7944   72.7804 C   0  0  0  0  0  0  0  0  0  0  0  0
  -48.9946   -1.6407   70.8350 H   0  0  0  0  0  0  0  0  0  0  0  0
  -50.1221   -0.7797   73.3663 H   0  0  0  0  0  0  0  0  0  0  0  0
  -50.2641   -3.2111   74.7559 H   0  0  0  0  0  0  0  0  0  0  0  0
  -53.8280   -4.1113   73.7109 C   0  0  0  0  0  0  0  0  0  0  0  0
  -53.5427   -5.1811   74.6106 O   0  0  0  0  0  0  0  0  0  0  0  0
  -52.6557   -4.9982   74.9896 H   0  0  0  0  0  0  0  0  0  0  0  0
  1  2  1  0  0  0
  2  3  1  0  0  0
  3  4  1  0  0  0
  4  5  1  0  0  0
  4  6  1  0  0  0
  6  8  1  0  0  0
  8  9  1  0  0  0
  8 10  1  0  0  0
  2 10  1  0  0  0
 14 15  1  0  0  0
  6  7  1  0  0  0
 10 14  1  0  0  0
  5 11  1  0  0  0
  7 12  1  0  0  0
  9 13  1  0  0  0
 15 16  1  0  0  0
M  END
> <minimizedAffinity>
-4.60178

$$$$
