ligand_23


 24 29  0  0  0  0  0  0  0  0999 V2000
  -55.8496   -2.6775   71.6813 C   0  0  0  0  0  0  0  0  0  0  0  0
  -55.0420   -1.5145   71.9447 N   0  0  0  0  0  0  0  0  0  0  0  0
  -53.6695   -1.5202   71.4838 C   0  0  0  0  0  0  0  0  0  0  0  0
  -52.7541   -2.2461   72.6059 C   0  0  0  0  0  0  0  0  0  0  0  0
  -53.6081   -2.8289   73.8075 C   0  0  0  0  0  0  0  0  0  0  0  0
  -53.4994   -4.1535   74.2502 C   0  0  0  0  0  0  0  0  0  0  0  0
  -54.5777   -4.6184   74.9989 C   0  0  0  0  0  0  0  0  0  0  0  0
  -55.6349   -3.8356   75.3940 C   0  0  0  0  0  0  0  0  0  0  0  0
  -55.7434   -2.4874   75.0713 C   0  0  0  0  0  0  0  0  0  0  0  0
  -54.7419   -2.0282   74.2247 C   0  0  0  0  0  0  0  0  0  0  0  0
  -54.9147   -0.8966   73.2861 C   0  0  0  0  0  0  0  0  0  0  0  0
  -55.3207    0.5432   73.0730 C   0  0  0  0  0  0  0  0  0  0  0  0
  -54.5207    0.9770   71.7793 C   0  0  0  0  0  0  0  0  0  0  0  0
  -54.9877    2.1208   71.1275 C   0  0  0  0  0  0  0  0  0  0  0  0
  -54.7233    2.1877   69.7807 C   0  0  0  0  0  0  0  0  0  0  0  0
  -53.8698    1.3072   69.1312 C   0  0  0  0  0  0  0  0  0  0  0  0
  -53.2086    0.2780   69.7710 C   0  0  0  0  0  0  0  0  0  0  0  0
  -53.6098    0.0126   71.0874 C   0  0  0  0  0  0  0  0  0  0  0  0
  -53.9604    1.4373   67.7694 O   0  0  0  0  0  0  0  0  0  0  0  0
  -55.1743    2.2121   67.6872 C   0  0  0  0  0  0  0  0  0  0  0  0
  -55.4256    2.9587   68.8933 O   0  0  0  0  0  0  0  0  0  0  0  0
  -56.6317   -4.5492   75.9906 O   0  0  0  0  0  0  0  0  0  0  0  0
  -56.1721   -5.8847   75.7199 C   0  0  0  0  0  0  0  0  0  0  0  0
  -54.7879   -5.9374   75.3072 O   0  0  0  0  0  0  0  0  0  0  0  0
  2  3  1  0  0  0
  3  4  1  0  0  0
  4  5  1  0  0  0
  5  6  2  0  0  0
  6  7  1  0  0  0
  7  8  2  0  0  0
  8  9  1  0  0  0
  9 10  2  0  0  0
  5 10  1  0  0  0
 10 11  1  0  0  0
  2 11  1  0  0  0
 11 12  1  0  0  0
 12 13  1  0  0  0
 13 14  2  0  0  0
 14 15  1  0  0  0
 15 16  2  0  0  0
 16 17  1  0  0  0
 17 18  2  0  0  0
 13 18  1  0  0  0
  3 18  1  0  0  0
 16 19  1  0  0  0
 19 20  1  0  0  0
 20 21  1  0  0  0
 15 21  1  0  0  0
  8 22  1  0  0  0
 22 23  1  0  0  0
 23 24  1  0  0  0
  7 24  1  0  0  0
  1  2  1  0  0  0
M  END
> <minimizedAffinity>
-7.72746

$$$$
ligand_23


 24 29  0  0  0  0  0  0  0  0999 V2000
  -55.9911   -1.7133   70.9740 C   0  0  0  0  0  0  0  0  0  0  0  0
  -55.1070   -1.7143   72.1109 N   0  0  0  0  0  0  0  0  0  0  0  0
  -55.5381   -1.0253   73.3091 C   0  0  0  0  0  0  0  0  0  0  0  0
  -55.1437    0.5399   73.1713 C   0  0  0  0  0  0  0  0  0  0  0  0
  -54.5154    0.8895   71.7586 C   0  0  0  0  0  0  0  0  0  0  0  0
  -54.9859    1.9322   70.9501 C   0  0  0  0  0  0  0  0  0  0  0  0
  -54.6312    1.8463   69.6061 C   0  0  0  0  0  0  0  0  0  0  0  0
  -53.7893    0.8907   69.0919 C   0  0  0  0  0  0  0  0  0  0  0  0
  -53.2097   -0.1072   69.8677 C   0  0  0  0  0  0  0  0  0  0  0  0
  -53.6414   -0.1164   71.1884 C   0  0  0  0  0  0  0  0  0  0  0  0
  -53.6770   -1.3320   72.0325 C   0  0  0  0  0  0  0  0  0  0  0  0
  -52.9409   -2.5261   72.5942 C   0  0  0  0  0  0  0  0  0  0  0  0
  -53.7307   -2.8711   73.9204 C   0  0  0  0  0  0  0  0  0  0  0  0
  -53.5191   -4.1495   74.4421 C   0  0  0  0  0  0  0  0  0  0  0  0
  -54.5510   -4.6657   75.1883 C   0  0  0  0  0  0  0  0  0  0  0  0
  -55.6438   -3.9128   75.5938 C   0  0  0  0  0  0  0  0  0  0  0  0
  -55.8036   -2.5770   75.2842 C   0  0  0  0  0  0  0  0  0  0  0  0
  -54.9111   -2.0528   74.3392 C   0  0  0  0  0  0  0  0  0  0  0  0
  -56.6320   -4.7076   76.1147 O   0  0  0  0  0  0  0  0  0  0  0  0
  -56.1633   -5.9939   75.6606 C   0  0  0  0  0  0  0  0  0  0  0  0
  -54.7429   -6.0016   75.4207 O   0  0  0  0  0  0  0  0  0  0  0  0
  -53.7111    0.9269   67.7312 O   0  0  0  0  0  0  0  0  0  0  0  0
  -54.7666    1.8624   67.4504 C   0  0  0  0  0  0  0  0  0  0  0  0
  -55.1891    2.6093   68.6135 O   0  0  0  0  0  0  0  0  0  0  0  0
  2  3  1  0  0  0
  3  4  1  0  0  0
  4  5  1  0  0  0
  5  6  2  0  0  0
  6  7  1  0  0  0
  7  8  2  0  0  0
  8  9  1  0  0  0
  9 10  2  0  0  0
  5 10  1  0  0  0
 10 11  1  0  0  0
  2 11  1  0  0  0
 11 12  1  0  0  0
 12 13  1  0  0  0
 13 14  2  0  0  0
 14 15  1  0  0  0
 15 16  2  0  0  0
 16 17  1  0  0  0
 17 18  2  0  0  0
 13 18  1  0  0  0
  3 18  1  0  0  0
 16 19  1  0  0  0
 19 20  1  0  0  0
 20 21  1  0  0  0
 15 21  1  0  0  0
  8 22  1  0  0  0
 22 23  1  0  0  0
 23 24  1  0  0  0
  7 24  1  0  0  0
  1  2  1  0  0  0
M  END
> <minimizedAffinity>
-7.63194

$$$$
ligand_23


 24 29  0  0  0  0  0  0  0  0999 V2000
  -52.1971   -4.0574   71.0288 C   0  0  0  0  0  0  0  0  0  0  0  0
  -52.1579   -3.7024   72.4239 N   0  0  0  0  0  0  0  0  0  0  0  0
  -53.3933   -3.2904   73.0565 C   0  0  0  0  0  0  0  0  0  0  0  0
  -53.5999   -1.7050   72.7955 C   0  0  0  0  0  0  0  0  0  0  0  0
  -52.4823   -1.0901   71.8543 C   0  0  0  0  0  0  0  0  0  0  0  0
  -52.7763   -0.3338   70.7125 C   0  0  0  0  0  0  0  0  0  0  0  0
  -51.7408   -0.2311   69.7869 C   0  0  0  0  0  0  0  0  0  0  0  0
  -50.4744   -0.7216   69.9913 C   0  0  0  0  0  0  0  0  0  0  0  0
  -50.0972   -1.3900   71.1509 C   0  0  0  0  0  0  0  0  0  0  0  0
  -51.1425   -1.6112   72.0392 C   0  0  0  0  0  0  0  0  0  0  0  0
  -51.1837   -2.7417   72.9941 C   0  0  0  0  0  0  0  0  0  0  0  0
  -50.4991   -3.5154   74.0967 C   0  0  0  0  0  0  0  0  0  0  0  0
  -51.6920   -4.1937   74.8832 C   0  0  0  0  0  0  0  0  0  0  0  0
  -51.3477   -5.2680   75.7070 C   0  0  0  0  0  0  0  0  0  0  0  0
  -52.3405   -6.1927   75.9247 C   0  0  0  0  0  0  0  0  0  0  0  0
  -53.6605   -5.9906   75.5478 C   0  0  0  0  0  0  0  0  0  0  0  0
  -54.1037   -4.8466   74.9147 C   0  0  0  0  0  0  0  0  0  0  0  0
  -53.1093   -3.9704   74.4590 C   0  0  0  0  0  0  0  0  0  0  0  0
  -54.3940   -7.1433   75.6606 O   0  0  0  0  0  0  0  0  0  0  0  0
  -53.3183   -8.0940   75.8001 C   0  0  0  0  0  0  0  0  0  0  0  0
  -52.1187   -7.4861   76.3163 O   0  0  0  0  0  0  0  0  0  0  0  0
  -49.6821   -0.6270   68.8858 O   0  0  0  0  0  0  0  0  0  0  0  0
  -50.6649   -0.2297   67.9140 C   0  0  0  0  0  0  0  0  0  0  0  0
  -51.8960    0.2391   68.5087 O   0  0  0  0  0  0  0  0  0  0  0  0
  2  3  1  0  0  0
  3  4  1  0  0  0
  4  5  1  0  0  0
  5  6  2  0  0  0
  6  7  1  0  0  0
  7  8  2  0  0  0
  8  9  1  0  0  0
  9 10  2  0  0  0
  5 10  1  0  0  0
 10 11  1  0  0  0
  2 11  1  0  0  0
 11 12  1  0  0  0
 12 13  1  0  0  0
 13 14  2  0  0  0
 14 15  1  0  0  0
 15 16  2  0  0  0
 16 17  1  0  0  0
 17 18  2  0  0  0
 13 18  1  0  0  0
  3 18  1  0  0  0
 16 19  1  0  0  0
 19 20  1  0  0  0
 20 21  1  0  0  0
 15 21  1  0  0  0
  8 22  1  0  0  0
 22 23  1  0  0  0
 23 24  1  0  0  0
  7 24  1  0  0  0
  1  2  1  0  0  0
M  END
> <minimizedAffinity>
-7.14337

$$$$
ligand_23


 24 29  0  0  0  0  0  0  0  0999 V2000
  -55.5050    1.4218   69.4520 C   0  0  0  0  0  0  0  0  0  0  0  0
  -54.3824    0.6674   69.9467 N   0  0  0  0  0  0  0  0  0  0  0  0
  -54.6479   -0.4457   70.8336 C   0  0  0  0  0  0  0  0  0  0  0  0
  -54.7647    0.1201   72.3470 C   0  0  0  0  0  0  0  0  0  0  0  0
  -54.6695    1.7009   72.4171 C   0  0  0  0  0  0  0  0  0  0  0  0
  -55.6166    2.4949   73.0765 C   0  0  0  0  0  0  0  0  0  0  0  0
  -55.6313    3.8356   72.6999 C   0  0  0  0  0  0  0  0  0  0  0  0
  -54.7266    4.4023   71.8358 C   0  0  0  0  0  0  0  0  0  0  0  0
  -53.7007    3.6835   71.2320 C   0  0  0  0  0  0  0  0  0  0  0  0
  -53.7362    2.3200   71.4970 C   0  0  0  0  0  0  0  0  0  0  0  0
  -53.1961    1.2908   70.5802 C   0  0  0  0  0  0  0  0  0  0  0  0
  -52.0290    0.7831   69.7659 C   0  0  0  0  0  0  0  0  0  0  0  0
  -52.2976   -0.7707   69.6428 C   0  0  0  0  0  0  0  0  0  0  0  0
  -51.6000   -1.4327   68.6297 C   0  0  0  0  0  0  0  0  0  0  0  0
  -52.2006   -2.5658   68.1364 C   0  0  0  0  0  0  0  0  0  0  0  0
  -53.3084   -3.1555   68.7284 C   0  0  0  0  0  0  0  0  0  0  0  0
  -53.9169   -2.6607   69.8645 C   0  0  0  0  0  0  0  0  0  0  0  0
  -53.5008   -1.3891   70.2818 C   0  0  0  0  0  0  0  0  0  0  0  0
  -53.8514   -4.1211   67.9207 O   0  0  0  0  0  0  0  0  0  0  0  0
  -53.1803   -3.7990   66.6851 C   0  0  0  0  0  0  0  0  0  0  0  0
  -51.9366   -3.1065   66.9062 O   0  0  0  0  0  0  0  0  0  0  0  0
  -55.0347    5.6903   71.5120 O   0  0  0  0  0  0  0  0  0  0  0  0
  -56.3463    5.7818   72.0946 C   0  0  0  0  0  0  0  0  0  0  0  0
  -56.6300    4.7153   73.0280 O   0  0  0  0  0  0  0  0  0  0  0  0
  2  3  1  0  0  0
  3  4  1  0  0  0
  4  5  1  0  0  0
  5  6  2  0  0  0
  6  7  1  0  0  0
  7  8  2  0  0  0
  8  9  1  0  0  0
  9 10  2  0  0  0
  5 10  1  0  0  0
 10 11  1  0  0  0
  2 11  1  0  0  0
 11 12  1  0  0  0
 12 13  1  0  0  0
 13 14  2  0  0  0
 14 15  1  0  0  0
 15 16  2  0  0  0
 16 17  1  0  0  0
 17 18  2  0  0  0
 13 18  1  0  0  0
  3 18  1  0  0  0
 16 19  1  0  0  0
 19 20  1  0  0  0
 20 21  1  0  0  0
 15 21  1  0  0  0
  8 22  1  0  0  0
 22 23  1  0  0  0
 23 24  1  0  0  0
  7 24  1  0  0  0
  1  2  1  0  0  0
M  END
> <minimizedAffinity>
-7.06218

$$$$
ligand_23


 24 29  0  0  0  0  0  0  0  0999 V2000
  -52.5628   -4.0339   70.9784 C   0  0  0  0  0  0  0  0  0  0  0  0
  -52.1573   -3.4116   72.2121 N   0  0  0  0  0  0  0  0  0  0  0  0
  -53.1123   -3.3698   73.2996 C   0  0  0  0  0  0  0  0  0  0  0  0
  -54.0542   -2.0661   73.1059 C   0  0  0  0  0  0  0  0  0  0  0  0
  -53.7485   -1.2861   71.7602 C   0  0  0  0  0  0  0  0  0  0  0  0
  -54.7409   -0.9460   70.8319 C   0  0  0  0  0  0  0  0  0  0  0  0
  -54.2793   -0.6568   69.5502 C   0  0  0  0  0  0  0  0  0  0  0  0
  -52.9510   -0.5861   69.2082 C   0  0  0  0  0  0  0  0  0  0  0  0
  -51.9208   -0.8120   70.1145 C   0  0  0  0  0  0  0  0  0  0  0  0
  -52.3541   -1.2197   71.3702 C   0  0  0  0  0  0  0  0  0  0  0  0
  -51.5490   -2.0617   72.2835 C   0  0  0  0  0  0  0  0  0  0  0  0
  -50.2422   -2.2800   73.0100 C   0  0  0  0  0  0  0  0  0  0  0  0
  -50.6411   -3.1772   74.2500 C   0  0  0  0  0  0  0  0  0  0  0  0
  -49.5916   -3.8515   74.8786 C   0  0  0  0  0  0  0  0  0  0  0  0
  -49.9347   -5.0139   75.5263 C   0  0  0  0  0  0  0  0  0  0  0  0
  -51.2494   -5.4009   75.7435 C   0  0  0  0  0  0  0  0  0  0  0  0
  -52.3382   -4.6612   75.3275 C   0  0  0  0  0  0  0  0  0  0  0  0
  -52.0626   -3.5910   74.4655 C   0  0  0  0  0  0  0  0  0  0  0  0
  -51.3213   -6.6943   76.1922 O   0  0  0  0  0  0  0  0  0  0  0  0
  -49.9790   -7.1246   75.8864 C   0  0  0  0  0  0  0  0  0  0  0  0
  -49.0553   -6.0209   75.8229 O   0  0  0  0  0  0  0  0  0  0  0  0
  -52.7539   -0.4320   67.8680 O   0  0  0  0  0  0  0  0  0  0  0  0
  -54.0972   -0.6388   67.3980 C   0  0  0  0  0  0  0  0  0  0  0  0
  -55.0870   -0.5519   68.4477 O   0  0  0  0  0  0  0  0  0  0  0  0
  2  3  1  0  0  0
  3  4  1  0  0  0
  4  5  1  0  0  0
  5  6  2  0  0  0
  6  7  1  0  0  0
  7  8  2  0  0  0
  8  9  1  0  0  0
  9 10  2  0  0  0
  5 10  1  0  0  0
 10 11  1  0  0  0
  2 11  1  0  0  0
 11 12  1  0  0  0
 12 13  1  0  0  0
 13 14  2  0  0  0
 14 15  1  0  0  0
 15 16  2  0  0  0
 16 17  1  0  0  0
 17 18  2  0  0  0
 13 18  1  0  0  0
  3 18  1  0  0  0
 16 19  1  0  0  0
 19 20  1  0  0  0
 20 21  1  0  0  0
 15 21  1  0  0  0
  8 22  1  0  0  0
 22 23  1  0  0  0
 23 24  1  0  0  0
  7 24  1  0  0  0
  1  2  1  0  0  0
M  END
> <minimizedAffinity>
-6.90789

$$$$
