@<TRIPOS>MOLECULE
ligand_41
 51 53 0 0 0
SMALL
GASTEIGER

@<TRIPOS>ATOM
      1 C           1.6910   -0.2187   -0.0335 C.3     1  UNL1        0.0790
      2 O           2.9477    0.0083    0.6185 O.3     1  UNL1       -0.4913
      3 C           3.6211    1.0896    0.1066 C.ar    1  UNL1        0.1653
      4 C           4.8753    0.8564   -0.4482 C.ar    1  UNL1       -0.0123
      5 C           5.6204    1.9098   -1.0079 C.ar    1  UNL1       -0.0324
      6 C           5.0797    3.2307   -0.9891 C.ar    1  UNL1        0.0312
      7 C           3.8045    3.4638   -0.3901 C.ar    1  UNL1        0.1729
      8 O           3.3619    4.7640   -0.4407 O.3     1  UNL1       -0.4907
      9 C           2.0973    5.0949    0.1134 C.3     1  UNL1        0.0790
     10 C           3.1122    2.3890    0.1862 C.ar    1  UNL1        0.2016
     11 O           1.9431    2.5742    0.8761 O.3     1  UNL1       -0.5009
     12 C           5.8048    4.3560   -1.6967 C.ar    1  UNL1       -0.0088
     13 C           6.1439    5.4040   -0.9084 C.ar    1  UNL1       -0.0500
     14 C           6.8159    6.5834   -1.4222 C.ar    1  UNL1       -0.0155
     15 C           6.2526    7.2190   -2.4713 C.ar    1  UNL1        0.1665
     16 O           4.9348    7.5656   -2.6558 O.3     1  UNL1       -0.4913
     17 C           4.1718    7.9028   -1.5087 C.3     1  UNL1        0.0790
     18 C           6.9034    6.6816   -3.6956 C.ar    1  UNL1        0.2206
     19 O           7.5850    7.3628   -4.4440 O.2     1  UNL1       -0.2840
     20 C           6.6261    5.2324   -3.9763 C.ar    1  UNL1       -0.0057
     21 C           6.1509    4.2564   -3.1595 C.ar    1  UNL1       -0.0157
     22 C           6.0010    2.8258   -3.6737 C.3     1  UNL1        0.0493
     23 N           5.8634    2.7391   -5.1142 N.am    1  UNL1       -0.3087
     24 C           4.6739    2.6266   -5.7875 C.2     1  UNL1        0.2104
     25 C           3.3894    2.7254   -4.9954 C.3     1  UNL1        0.0122
     26 O           4.6751    2.4271   -6.9998 O.2     1  UNL1       -0.2761
     27 C           7.1577    1.9872   -3.1264 C.3     1  UNL1       -0.0263
     28 C           6.9550    1.5647   -1.6555 C.3     1  UNL1       -0.0249
     29 H           1.5556   -1.2989   -0.1415 H       1  UNL1        0.0660
     30 H           1.6264    0.2364   -1.0288 H       1  UNL1        0.0660
     31 H           0.8794    0.1532    0.6003 H       1  UNL1        0.0660
     32 H           5.2572   -0.1627   -0.4649 H       1  UNL1        0.0658
     33 H           1.9389    6.1678   -0.0283 H       1  UNL1        0.0660
     34 H           2.0803    4.9219    1.1933 H       1  UNL1        0.0660
     35 H           1.2865    4.5800   -0.4109 H       1  UNL1        0.0660
     36 H           1.8861    1.8383    1.5128 H       1  UNL1        0.2924
     37 H           5.9149    5.4213    0.1549 H       1  UNL1        0.0625
     38 H           7.8974    6.4175   -1.4263 H       1  UNL1        0.0655
     39 H           3.7173    8.8845   -1.6727 H       1  UNL1        0.0660
     40 H           4.7393    7.9406   -0.5745 H       1  UNL1        0.0660
     41 H           3.3621    7.1785   -1.4241 H       1  UNL1        0.0660
     42 H           6.8987    5.0033   -5.0035 H       1  UNL1        0.0660
     43 H           5.0696    2.3929   -3.3144 H       1  UNL1        0.0548
     44 H           6.6866    2.6925   -5.7022 H       1  UNL1        0.1493
     45 H           3.3923    3.6232   -4.3701 H       1  UNL1        0.0322
     46 H           3.2651    1.8381   -4.3663 H       1  UNL1        0.0322
     47 H           2.5364    2.7862   -5.6754 H       1  UNL1        0.0322
     48 H           8.1085    2.5355   -3.2064 H       1  UNL1        0.0289
     49 H           7.3009    1.0891   -3.7405 H       1  UNL1        0.0289
     50 H           7.7606    1.9679   -1.0303 H       1  UNL1        0.0314
     51 H           7.0928    0.4743   -1.6281 H       1  UNL1        0.0314
@<TRIPOS>BOND
     1     1     2    1
     2     2     3    1
     3     3     4   ar
     4     4     5   ar
     5     5     6   ar
     6     6     7   ar
     7     7     8    1
     8     8     9    1
     9     7    10   ar
    10     3    10   ar
    11    10    11    1
    12     6    12    1
    13    12    13   ar
    14    13    14   ar
    15    14    15   ar
    16    15    16    1
    17    16    17    1
    18    15    18   ar
    19    18    19    2
    20    18    20   ar
    21    20    21   ar
    22    12    21   ar
    23    21    22    1
    24    22    23    1
    25    23    24   am
    26    24    25    1
    27    24    26    2
    28    22    27    1
    29    27    28    1
    30     5    28    1
    31     1    29    1
    32     1    30    1
    33     1    31    1
    34     4    32    1
    35     9    33    1
    36     9    34    1
    37     9    35    1
    38    11    36    1
    39    13    37    1
    40    14    38    1
    41    17    39    1
    42    17    40    1
    43    17    41    1
    44    20    42    1
    45    22    43    1
    46    23    44    1
    47    25    45    1
    48    25    46    1
    49    25    47    1
    50    27    48    1
    51    27    49    1
    52    28    50    1
    53    28    51    1
