@<TRIPOS>MOLECULE
ligand_40
 49 52 0 0 0
SMALL
GASTEIGER

@<TRIPOS>ATOM
      1 C           0.4660    0.2537    0.3596 C.3     1  UNL1       -0.0431
      2 C           1.9557    0.0562    0.1970 C.2     1  UNL1       -0.0651
      3 C           2.4616   -1.1455    0.5048 C.2     1  UNL1       -0.0173
      4 C           3.8959   -1.4180    0.4269 C.2     1  UNL1        0.1848
      5 O           4.2902   -2.5854    0.4138 O.2     1  UNL1       -0.2899
      6 C           4.8775   -0.2610    0.4135 C.3     1  UNL1        0.1232
      7 O           6.0327   -0.7330   -0.3003 O.3     1  UNL1       -0.3834
      8 C           4.3824    1.1166   -0.1352 C.3     1  UNL1        0.0142
      9 C           4.7992    2.1751    0.9415 C.3     1  UNL1       -0.0559
     10 C           2.7879    1.2569   -0.2581 C.3     1  UNL1       -0.0046
     11 C           2.2916    1.9071   -1.6049 C.3     1  UNL1        0.0135
     12 C           3.1063    1.6681   -2.8899 C.2     1  UNL1        0.1409
     13 O           2.7607    2.1686   -3.9586 O.2     1  UNL1       -0.2968
     14 C           4.3776    0.8381   -2.7532 C.3     1  UNL1        0.0453
     15 C           3.7939   -0.5942   -2.6476 C.3     1  UNL1       -0.0517
     16 C           5.2930    0.8459   -4.0142 C.3     1  UNL1        0.0748
     17 C           6.2763   -0.3056   -3.8589 C.2     1  UNL1        0.3119
     18 O           6.1293   -1.4468   -4.2517 O.2     1  UNL1       -0.2505
     19 O           7.3498    0.1351   -3.1331 O.3     1  UNL1       -0.4582
     20 C           7.2177    1.5580   -2.9657 C.3     1  UNL1        0.1324
     21 C           6.3365    1.9461   -4.1368 C.3     1  UNL1        0.0096
     22 C           5.8538    3.3781   -4.2191 C.3     1  UNL1       -0.0582
     23 C           6.5747    1.8659   -1.6047 C.3     1  UNL1        0.0966
     24 O           7.3691    1.3423   -0.5552 O.3     1  UNL1       -0.3878
     25 C           5.0436    1.5298   -1.5025 C.3     1  UNL1        0.0101
     26 H          -0.0279   -0.6513    0.7333 H       1  UNL1        0.0275
     27 H          -0.0145    0.4996   -0.5901 H       1  UNL1        0.0275
     28 H           0.2664    1.0536    1.0788 H       1  UNL1        0.0275
     29 H           1.8476   -1.9908    0.7988 H       1  UNL1        0.0653
     30 H           5.1950   -0.1582    1.4591 H       1  UNL1        0.0682
     31 H           6.0944   -1.6963   -0.1158 H       1  UNL1        0.2104
     32 H           4.2892    1.9824    1.8939 H       1  UNL1        0.0236
     33 H           4.5330    3.1911    0.6274 H       1  UNL1        0.0236
     34 H           5.8714    2.1635    1.1524 H       1  UNL1        0.0236
     35 H           2.4934    2.0087    0.4924 H       1  UNL1        0.0356
     36 H           2.2950    2.9964   -1.4588 H       1  UNL1        0.0348
     37 H           1.2616    1.6235   -1.8355 H       1  UNL1        0.0348
     38 H           3.5446   -0.9725   -3.6493 H       1  UNL1        0.0239
     39 H           2.8413   -0.6562   -2.1245 H       1  UNL1        0.0239
     40 H           4.4889   -1.3054   -2.2020 H       1  UNL1        0.0239
     41 H           4.7355    0.7351   -4.9503 H       1  UNL1        0.0427
     42 H           8.2202    1.9931   -3.0334 H       1  UNL1        0.0763
     43 H           6.9079    1.7598   -5.0609 H       1  UNL1        0.0343
     44 H           5.2895    3.7067   -3.3467 H       1  UNL1        0.0234
     45 H           5.2139    3.5065   -5.0987 H       1  UNL1        0.0234
     46 H           6.7103    4.0515   -4.3335 H       1  UNL1        0.0234
     47 H           6.6610    2.9542   -1.4757 H       1  UNL1        0.0633
     48 H           7.2181    0.3712   -0.5563 H       1  UNL1        0.2099
     49 H           4.6900    2.5735   -1.5854 H       1  UNL1        0.0343
@<TRIPOS>BOND
     1     2     3    2
     2     3     4    1
     3     4     6    1
     4     6     8    1
     5     8    10    1
     6     2    10    1
     7    10    11    1
     8    11    12    1
     9    12    14    1
    10    14    16    1
    11    16    17    1
    12    17    19    1
    13    19    20    1
    14    20    21    1
    15    16    21    1
    16    20    23    1
    17    23    25    1
    18    14    25    1
    19     8    25    1
    20     1     2    1
    21     4     5    2
    22     6     7    1
    23     8     9    1
    24    12    13    2
    25    14    15    1
    26    17    18    2
    27    23    24    1
    28    21    22    1
    29     1    26    1
    30     1    27    1
    31     1    28    1
    32     3    29    1
    33     6    30    1
    34     7    31    1
    35     9    32    1
    36     9    33    1
    37     9    34    1
    38    10    35    1
    39    11    36    1
    40    11    37    1
    41    15    38    1
    42    15    39    1
    43    15    40    1
    44    16    41    1
    45    20    42    1
    46    21    43    1
    47    22    44    1
    48    22    45    1
    49    22    46    1
    50    23    47    1
    51    24    48    1
    52    25    49    1
