@<TRIPOS>MOLECULE
ligand_2
 19 18 0 0 0
SMALL
GASTEIGER

@<TRIPOS>ATOM
      1 CG1         2.3650   -3.1412    2.0339 C.3     1  VAL1       -0.0607
      2 CB          2.3387   -2.2439    0.7931 C.3     1  VAL1       -0.0211
      3 CG2         2.8430   -3.0274   -0.4236 C.3     1  VAL1       -0.0607
      4 CA          3.0799   -0.9060    1.0236 C.3     1  VAL1        0.1056
      5 N           2.6115    0.0945    0.0324 N.3     1  VAL1       -0.3182
      6 C           4.6173   -1.0265    0.9275 C.2     1  VAL1        0.3220
      7 O           5.2705   -0.6711   -0.0459 O.2     1  VAL1       -0.2492
      8 OXT         5.2030   -1.5426    2.0303 O.3     1  VAL1       -0.4795
      9 HG11        1.7250   -4.0179    1.8847 H       1  VAL1        0.0233
     10 HG12        1.9878   -2.6041    2.9106 H       1  VAL1        0.0233
     11 HG13        3.3717   -3.5053    2.2575 H       1  VAL1        0.0233
     12 HB          1.2798   -2.0096    0.6125 H       1  VAL1        0.0316
     13 HG21        3.8509   -3.4227   -0.2563 H       1  VAL1        0.0233
     14 HG22        2.8638   -2.4083   -1.3252 H       1  VAL1        0.0233
     15 HG23        2.1860   -3.8806   -0.6256 H       1  VAL1        0.0233
     16 HA          2.8341   -0.4958    2.0100 H       1  VAL1        0.0576
     17 H1          2.9484   -0.1962   -0.8906 H       1  VAL1        0.1190
     18 H2          3.1143    0.9701    0.1970 H       1  VAL1        0.1190
     19 HXT         4.5851   -1.7459    2.7566 H       1  VAL1        0.2951
@<TRIPOS>BOND
     1     1     2    1
     2     2     3    1
     3     4     6    1
     4     6     7    2
     5     6     8    1
     6     4     5    1
     7     4     2    1
     8     1     9    1
     9     1    10    1
    10     1    11    1
    11     2    12    1
    12     3    13    1
    13     3    14    1
    14     3    15    1
    15     4    16    1
    16     5    17    1
    17     5    18    1
    18     8    19    1
