@<TRIPOS>MOLECULE
ligand_22
 37 37 0 0 0
SMALL
GASTEIGER

@<TRIPOS>ATOM
      1 C           0.9824    0.1859    0.1720 C.3     1  UNL1       -0.0600
      2 C           2.5025   -0.0456   -0.0367 C.3     1  UNL1       -0.0369
      3 C           2.7591   -1.5435    0.1897 C.3     1  UNL1       -0.0600
      4 C           2.8167    0.3098   -1.4968 C.3     1  UNL1       -0.0600
      5 C           3.2386    0.8747    0.9931 C.3     1  UNL1       -0.0389
      6 C           4.7985    1.0171    1.1042 C.3     1  UNL1       -0.0094
      7 C           5.4706   -0.3426    1.3862 C.3     1  UNL1       -0.0558
      8 C           5.4454    1.5724   -0.1844 C.3     1  UNL1       -0.0558
      9 C           5.0776    2.0416    2.2462 C.ar    1  UNL1       -0.0415
     10 C           5.6710    1.6779    3.4697 C.ar    1  UNL1       -0.0546
     11 C           5.9525    2.6313    4.4566 C.ar    1  UNL1       -0.0199
     12 C           5.6268    3.9627    4.2403 C.ar    1  UNL1        0.1169
     13 O           5.8977    4.9238    5.1677 O.3     1  UNL1       -0.5068
     14 C           5.0122    4.3527    3.0614 C.ar    1  UNL1       -0.0199
     15 C           4.7397    3.4010    2.0749 C.ar    1  UNL1       -0.0546
     16 H           0.3859   -0.4245   -0.5162 H       1  UNL1        0.0235
     17 H           0.7123    1.2338   -0.0018 H       1  UNL1        0.0235
     18 H           0.6787   -0.0758    1.1920 H       1  UNL1        0.0235
     19 H           2.0208   -2.1541   -0.3444 H       1  UNL1        0.0235
     20 H           2.6931   -1.8041    1.2512 H       1  UNL1        0.0235
     21 H           3.7343   -1.8584   -0.1867 H       1  UNL1        0.0235
     22 H           2.1104   -0.1755   -2.1813 H       1  UNL1        0.0235
     23 H           3.8109   -0.0295   -1.7955 H       1  UNL1        0.0235
     24 H           2.7484    1.3894   -1.6681 H       1  UNL1        0.0235
     25 H           2.8754    0.5849    1.9918 H       1  UNL1        0.0279
     26 H           2.8305    1.8840    0.8347 H       1  UNL1        0.0279
     27 H           5.4572   -0.9932    0.5091 H       1  UNL1        0.0238
     28 H           4.9807   -0.8741    2.2098 H       1  UNL1        0.0238
     29 H           6.5303   -0.2224    1.6428 H       1  UNL1        0.0238
     30 H           5.5321    0.8103   -0.9628 H       1  UNL1        0.0238
     31 H           6.4658    1.9274    0.0086 H       1  UNL1        0.0238
     32 H           4.8795    2.4110   -0.6034 H       1  UNL1        0.0238
     33 H           5.9389    0.6475    3.6854 H       1  UNL1        0.0622
     34 H           6.4265    2.3115    5.3794 H       1  UNL1        0.0654
     35 H           6.3679    4.5107    5.9102 H       1  UNL1        0.2921
     36 H           4.7508    5.3947    2.9028 H       1  UNL1        0.0654
     37 H           4.2599    3.7428    1.1605 H       1  UNL1        0.0622
@<TRIPOS>BOND
     1     1     2    1
     2     2     3    1
     3     2     4    1
     4     2     5    1
     5     5     6    1
     6     6     7    1
     7     6     8    1
     8     6     9    1
     9     9    10   ar
    10    10    11   ar
    11    11    12   ar
    12    12    13    1
    13    12    14   ar
    14    14    15   ar
    15     9    15   ar
    16     1    16    1
    17     1    17    1
    18     1    18    1
    19     3    19    1
    20     3    20    1
    21     3    21    1
    22     4    22    1
    23     4    23    1
    24     4    24    1
    25     5    25    1
    26     5    26    1
    27     7    27    1
    28     7    28    1
    29     7    29    1
    30     8    30    1
    31     8    31    1
    32     8    32    1
    33    10    33    1
    34    11    34    1
    35    13    35    1
    36    14    36    1
    37    15    37    1
