@<TRIPOS>MOLECULE
ligand_37
 37 39 0 0 0
SMALL
GASTEIGER

@<TRIPOS>ATOM
      1 C           1.2787    0.0379   -0.1380 C.3     1  UNL1        0.0788
      2 O           2.7024   -0.0116   -0.2193 O.3     1  UNL1       -0.4951
      3 C           3.1554   -0.7454   -1.2818 C.ar    1  UNL1        0.1201
      4 C           4.2120   -1.6197   -1.0287 C.ar    1  UNL1       -0.0194
      5 C           4.7018   -2.4439   -2.0454 C.ar    1  UNL1       -0.0504
      6 C           4.1499   -2.3781   -3.3302 C.ar    1  UNL1       -0.0110
      7 C           4.5464   -3.3167   -4.3866 C.ar    1  UNL1        0.0644
      8 C           4.2656   -4.6208   -4.2586 C.ar    1  UNL1        0.1038
      9 O           4.4742   -5.5907   -5.2064 O.2     1  UNL1       -0.4618
     10 C           4.7572   -5.1661   -6.4830 C.ar    1  UNL1        0.1456
     11 C           4.6761   -6.1385   -7.4871 C.ar    1  UNL1        0.0267
     12 C           4.8946   -5.7729   -8.8120 C.ar    1  UNL1        0.1657
     13 O           4.8059   -6.6995   -9.8105 O.3     1  UNL1       -0.5031
     14 C           5.1917   -4.4463   -9.1259 C.ar    1  UNL1        0.2040
     15 O           5.4043   -4.0319  -10.4179 O.3     1  UNL1       -0.4885
     16 C           4.1542   -3.8132  -11.0776 C.3     1  UNL1        0.0791
     17 C           5.3198   -3.4873   -8.1135 C.ar    1  UNL1        0.1768
     18 O           5.6284   -2.2057   -8.4794 O.3     1  UNL1       -0.5027
     19 C           5.0913   -3.8397   -6.7834 C.ar    1  UNL1        0.1097
     20 C           5.1516   -2.8652   -5.6682 C.ar    1  UNL1        0.2038
     21 O           5.6525   -1.7541   -5.7707 O.2     1  UNL1       -0.2863
     22 C           3.1404   -1.4417   -3.5931 C.ar    1  UNL1       -0.0504
     23 C           2.6445   -0.6272   -2.5731 C.ar    1  UNL1       -0.0194
     24 H           1.0130    0.4255    0.8499 H       1  UNL1        0.0660
     25 H           0.8372   -0.9611   -0.2355 H       1  UNL1        0.0660
     26 H           0.8623    0.7200   -0.8856 H       1  UNL1        0.0660
     27 H           4.6380   -1.6774   -0.0307 H       1  UNL1        0.0654
     28 H           5.5096   -3.1372   -1.8242 H       1  UNL1        0.0625
     29 H           3.8053   -5.0560   -3.3794 H       1  UNL1        0.1037
     30 H           4.4196   -7.1592   -7.2191 H       1  UNL1        0.0692
     31 H           4.7697   -7.5887   -9.4204 H       1  UNL1        0.2923
     32 H           3.8669   -4.7069  -11.6387 H       1  UNL1        0.0660
     33 H           4.2947   -2.9902  -11.7854 H       1  UNL1        0.0660
     34 H           3.3492   -3.5252  -10.3899 H       1  UNL1        0.0660
     35 H           5.8843   -2.2376   -9.4205 H       1  UNL1        0.2923
     36 H           2.7244   -1.3468   -4.5943 H       1  UNL1        0.0625
     37 H           1.8695    0.0944   -2.8092 H       1  UNL1        0.0654
@<TRIPOS>BOND
     1     1     2    1
     2     2     3    1
     3     3     4   ar
     4     4     5   ar
     5     5     6   ar
     6     6     7    1
     7     7     8   ar
     8     8     9   ar
     9     9    10   ar
    10    10    11   ar
    11    11    12   ar
    12    12    13    1
    13    12    14   ar
    14    14    15    1
    15    15    16    1
    16    14    17   ar
    17    17    18    1
    18    17    19   ar
    19    10    19   ar
    20    19    20   ar
    21     7    20   ar
    22    20    21    2
    23     6    22   ar
    24    22    23   ar
    25     3    23   ar
    26     1    24    1
    27     1    25    1
    28     1    26    1
    29     4    27    1
    30     5    28    1
    31     8    29    1
    32    11    30    1
    33    13    31    1
    34    16    32    1
    35    16    33    1
    36    16    34    1
    37    18    35    1
    38    22    36    1
    39    23    37    1
