@<TRIPOS>MOLECULE
ligand_10
 36 37 0 0 0
SMALL
GASTEIGER

@<TRIPOS>ATOM
      1 C           1.1883   -0.2893   -0.0046 C.3     1  UNL1        0.0788
      2 O           2.6078   -0.1985   -0.0243 O.3     1  UNL1       -0.4950
      3 C           3.1478    1.0577   -0.0381 C.ar    1  UNL1        0.1236
      4 C           4.5391    1.1011   -0.1064 C.ar    1  UNL1       -0.0195
      5 C           5.2148    2.3261   -0.1241 C.ar    1  UNL1       -0.0517
      6 C           4.5168    3.5459   -0.0802 C.ar    1  UNL1       -0.0053
      7 C           5.3495    4.8153   -0.1382 C.3     1  UNL1       -0.0172
      8 C           4.6206    6.1463    0.0295 C.3     1  UNL1        0.0145
      9 C           5.5257    7.3514   -0.1218 C.2     1  UNL1        0.1635
     10 O           6.7354    7.2703   -0.3174 O.2     1  UNL1       -0.2920
     11 C           4.8691    8.6890   -0.1066 C.ar    1  UNL1        0.0176
     12 C           3.7458    8.9439    0.6925 C.ar    1  UNL1       -0.0478
     13 C           3.1224   10.1937    0.6481 C.ar    1  UNL1       -0.0195
     14 C           3.6217   11.1772   -0.1999 C.ar    1  UNL1        0.1169
     15 O           3.0327   12.4031   -0.2862 O.3     1  UNL1       -0.5068
     16 C           4.7411   10.9384   -0.9903 C.ar    1  UNL1       -0.0195
     17 C           5.3734    9.6946   -0.9389 C.ar    1  UNL1       -0.0478
     18 C           3.1199    3.4780   -0.0311 C.ar    1  UNL1        0.1235
     19 O           2.3636    4.6159   -0.0295 O.3     1  UNL1       -0.5064
     20 C           2.4383    2.2543    0.0057 C.ar    1  UNL1        0.0218
     21 H           0.9192   -1.3494   -0.0353 H       1  UNL1        0.0660
     22 H           0.7479    0.1904   -0.8853 H       1  UNL1        0.0660
     23 H           0.7800    0.1321    0.9200 H       1  UNL1        0.0660
     24 H           5.1059    0.1740   -0.1482 H       1  UNL1        0.0654
     25 H           6.3022    2.3224   -0.1820 H       1  UNL1        0.0623
     26 H           5.8796    4.8199   -1.0998 H       1  UNL1        0.0318
     27 H           6.1176    4.7478    0.6448 H       1  UNL1        0.0318
     28 H           4.1555    6.1737    1.0199 H       1  UNL1        0.0348
     29 H           3.8579    6.2502   -0.7503 H       1  UNL1        0.0348
     30 H           3.3470    8.1889    1.3640 H       1  UNL1        0.0626
     31 H           2.2556   10.3775    1.2756 H       1  UNL1        0.0654
     32 H           2.2758   12.4318    0.3219 H       1  UNL1        0.2921
     33 H           5.1185   11.7168   -1.6477 H       1  UNL1        0.0654
     34 H           6.2456    9.5065   -1.5614 H       1  UNL1        0.0626
     35 H           1.5882    4.4488   -0.5920 H       1  UNL1        0.2921
     36 H           1.3572    2.2628    0.0804 H       1  UNL1        0.0691
@<TRIPOS>BOND
     1     1     2    1
     2     2     3    1
     3     3     4   ar
     4     4     5   ar
     5     5     6   ar
     6     6     7    1
     7     7     8    1
     8     8     9    1
     9     9    10    2
    10     9    11    1
    11    11    12   ar
    12    12    13   ar
    13    13    14   ar
    14    14    15    1
    15    14    16   ar
    16    16    17   ar
    17    11    17   ar
    18     6    18   ar
    19    18    19    1
    20    18    20   ar
    21     3    20   ar
    22     1    21    1
    23     1    22    1
    24     1    23    1
    25     4    24    1
    26     5    25    1
    27     7    26    1
    28     7    27    1
    29     8    28    1
    30     8    29    1
    31    12    30    1
    32    13    31    1
    33    15    32    1
    34    16    33    1
    35    17    34    1
    36    19    35    1
    37    20    36    1
