@<TRIPOS>MOLECULE
ligand_12
 48 52 0 0 0
SMALL
GASTEIGER

@<TRIPOS>ATOM
      1 C           0.4568   -0.0598    0.0939 C.3     1  UNL1       -0.0584
      2 C           1.9728   -0.1680   -0.0853 C.3     1  UNL1       -0.0122
      3 C           2.3519   -0.1268   -1.5932 C.3     1  UNL1       -0.0049
      4 C           3.8369   -0.3644   -1.5759 C.3     1  UNL1        0.1315
      5 C           4.5189   -1.5125   -2.2469 C.ar    1  UNL1        0.0304
      6 C           4.0553   -2.7941   -2.6605 C.ar    1  UNL1       -0.0172
      7 C           5.1672   -3.5147   -3.0358 C.ar    1  UNL1        0.0921
      8 O           6.2767   -2.7421   -2.9721 O.2     1  UNL1       -0.4706
      9 C           5.8801   -1.5332   -2.5132 C.ar    1  UNL1        0.0983
     10 O           4.1672   -0.3260   -0.1466 O.3     1  UNL1       -0.4562
     11 C           3.1919   -0.8552    0.9680 C.2     1  UNL1        0.3113
     12 O           2.9419   -0.6456    2.1756 O.2     1  UNL1       -0.2505
     13 C           2.5550   -1.8719    0.3889 C.3     1  UNL1        0.0622
     14 C           4.2578   -2.1998    1.0871 C.3     1  UNL1       -0.0392
     15 C           5.2341   -0.7220    1.7509 C.3     1  UNL1       -0.0459
     16 C           4.4977    0.9950    1.6196 C.3     1  UNL1        0.0045
     17 C           2.8219    1.2762    0.8425 C.3     1  UNL1       -0.0253
     18 C           2.7037    2.6611    0.1970 C.3     1  UNL1       -0.0094
     19 C           4.0362    3.3443   -0.1179 C.3     1  UNL1        0.1324
     20 O           4.7880    2.5850   -1.0715 O.3     1  UNL1       -0.4566
     21 C           5.7665    1.8940   -0.3899 C.2     1  UNL1        0.3425
     22 O           6.6726    1.2817   -0.9242 O.2     1  UNL1       -0.2475
     23 C           5.5337    2.0297    1.1097 C.3     1  UNL1        0.1946
     24 O           6.7082    1.9859    1.9049 O.3     1  UNL1       -0.3751
     25 C           4.9945    3.4542    1.0552 C.3     1  UNL1        0.1313
     26 O           4.4126    3.9253    2.2543 O.3     1  UNL1       -0.3847
     27 H          -0.0703   -0.7459   -0.5774 H       1  UNL1        0.0235
     28 H           0.1109    0.9560   -0.1222 H       1  UNL1        0.0235
     29 H           0.1702   -0.3068    1.1203 H       1  UNL1        0.0235
     30 H           2.1133    0.8522   -2.0225 H       1  UNL1        0.0310
     31 H           1.8099   -0.8705   -2.1862 H       1  UNL1        0.0310
     32 H           4.2815    0.5202   -2.0376 H       1  UNL1        0.0786
     33 H           3.0510   -3.1901   -2.6201 H       1  UNL1        0.0653
     34 H           5.3336   -4.5359   -3.3487 H       1  UNL1        0.1029
     35 H           6.6713   -0.8054   -2.3808 H       1  UNL1        0.1033
     36 H           2.6827   -2.3483   -0.5706 H       1  UNL1        0.0419
     37 H           4.1544   -2.9261    1.9093 H       1  UNL1        0.0273
     38 H           4.8782   -2.6624    0.3043 H       1  UNL1        0.0273
     39 H           6.1963   -0.7336    1.2253 H       1  UNL1        0.0269
     40 H           5.3966   -0.9208    2.8178 H       1  UNL1        0.0269
     41 H           4.3210    1.2356    2.6821 H       1  UNL1        0.0338
     42 H           2.1672    1.3560    1.7322 H       1  UNL1        0.0311
     43 H           2.1642    3.3109    0.9017 H       1  UNL1        0.0305
     44 H           2.0765    2.6090   -0.6957 H       1  UNL1        0.0305
     45 H           3.8331    4.3347   -0.5392 H       1  UNL1        0.0761
     46 H           7.2058    1.1944    1.6226 H       1  UNL1        0.2110
     47 H           5.8092    4.1459    0.7940 H       1  UNL1        0.0665
     48 H           5.1476    3.9863    2.8960 H       1  UNL1        0.2101
@<TRIPOS>BOND
     1     1     2    1
     2     2     3    1
     3     3     4    1
     4     4     5    1
     5     5     6   ar
     6     6     7   ar
     7     7     8   ar
     8     8     9   ar
     9     5     9   ar
    10     4    10    1
    11    10    11    1
    12    11    12    2
    13    11    13    1
    14     2    13    1
    15    13    14    1
    16    14    15    1
    17    15    16    1
    18    16    17    1
    19     2    17    1
    20    17    18    1
    21    18    19    1
    22    19    20    1
    23    20    21    1
    24    21    22    2
    25    21    23    1
    26    16    23    1
    27    23    24    1
    28    23    25    1
    29    19    25    1
    30    25    26    1
    31     1    27    1
    32     1    28    1
    33     1    29    1
    34     3    30    1
    35     3    31    1
    36     4    32    1
    37     6    33    1
    38     7    34    1
    39     9    35    1
    40    13    36    1
    41    14    37    1
    42    14    38    1
    43    15    39    1
    44    15    40    1
    45    16    41    1
    46    17    42    1
    47    18    43    1
    48    18    44    1
    49    19    45    1
    50    24    46    1
    51    25    47    1
    52    26    48    1
