@<TRIPOS>MOLECULE
ligand_52
 46 48 0 0 0
SMALL
GASTEIGER

@<TRIPOS>ATOM
      1 C           1.1907   -0.2067   -0.1149 C.3     1  UNL1        0.0790
      2 O           2.5916   -0.0752   -0.3160 O.3     1  UNL1       -0.4915
      3 C           3.1380    1.1768   -0.2323 C.ar    1  UNL1        0.1613
      4 C           4.5405    1.1686   -0.2259 C.ar    1  UNL1       -0.0156
      5 C           5.2781    2.3535   -0.1152 C.ar    1  UNL1       -0.0473
      6 C           4.6167    3.5763   -0.0135 C.ar    1  UNL1        0.0247
      7 C           5.3021    4.8555    0.2220 C.ar    1  UNL1        0.1811
      8 O           5.1772    5.7725   -0.8090 O.2     1  UNL1       -0.4470
      9 C           5.9908    6.8811   -0.7356 C.ar    1  UNL1        0.1884
     10 C           6.5321    7.4535   -1.8791 C.ar    1  UNL1        0.2087
     11 O           6.5095    6.9274   -3.1467 O.3     1  UNL1       -0.4884
     12 C           6.4869    5.5026   -3.2359 C.3     1  UNL1        0.0791
     13 C           7.2136    8.6775   -1.7538 C.ar    1  UNL1        0.2085
     14 O           7.8078    9.2104   -2.8761 O.3     1  UNL1       -0.5007
     15 C           7.3338    9.3585   -0.5261 C.ar    1  UNL1        0.2078
     16 O           8.0095   10.5488   -0.5858 O.3     1  UNL1       -0.4884
     17 C           7.8107   11.4847    0.4641 C.3     1  UNL1        0.0791
     18 C           6.8490    8.7280    0.6232 C.ar    1  UNL1        0.1772
     19 O           6.9767    9.3176    1.8543 O.3     1  UNL1       -0.5027
     20 C           6.2627    7.4583    0.5060 C.ar    1  UNL1        0.1165
     21 C           6.1143    6.5841    1.6803 C.ar    1  UNL1        0.2383
     22 O           6.2148    7.0308    2.8126 O.2     1  UNL1       -0.2830
     23 C           5.9176    5.1395    1.3809 C.ar    1  UNL1        0.2107
     24 O           6.3633    4.1836    2.2692 O.3     1  UNL1       -0.4883
     25 C           7.7575    3.9569    1.9986 C.3     1  UNL1        0.0791
     26 C           3.2123    3.5931   -0.0527 C.ar    1  UNL1       -0.0057
     27 C           2.4786    2.4060   -0.1574 C.ar    1  UNL1        0.1591
     28 O           1.1139    2.4904   -0.1776 O.3     1  UNL1       -0.5033
     29 H           0.9606   -1.2764   -0.0805 H       1  UNL1        0.0660
     30 H           0.6319    0.2159   -0.9556 H       1  UNL1        0.0660
     31 H           0.8765    0.2202    0.8435 H       1  UNL1        0.0660
     32 H           5.0644    0.2165   -0.2845 H       1  UNL1        0.0655
     33 H           6.3622    2.2985   -0.0851 H       1  UNL1        0.0626
     34 H           6.9075    5.2206   -4.2057 H       1  UNL1        0.0660
     35 H           5.4557    5.1390   -3.2034 H       1  UNL1        0.0660
     36 H           7.1019    5.0231   -2.4649 H       1  UNL1        0.0660
     37 H           7.6606    8.5644   -3.5917 H       1  UNL1        0.2924
     38 H           8.2255   12.4421    0.1329 H       1  UNL1        0.0660
     39 H           8.3629   11.1952    1.3629 H       1  UNL1        0.0660
     40 H           6.7469   11.6425    0.6706 H       1  UNL1        0.0660
     41 H           6.6008    8.7234    2.5428 H       1  UNL1        0.2923
     42 H           7.9679    2.8917    2.1314 H       1  UNL1        0.0660
     43 H           8.3721    4.5339    2.6954 H       1  UNL1        0.0660
     44 H           8.0490    4.2162    0.9688 H       1  UNL1        0.0660
     45 H           2.6936    4.5457    0.0277 H       1  UNL1        0.0662
     46 H           0.8442    3.4160   -0.0621 H       1  UNL1        0.2923
@<TRIPOS>BOND
     1     1     2    1
     2     2     3    1
     3     3     4   ar
     4     4     5   ar
     5     5     6   ar
     6     6     7    1
     7     7     8   ar
     8     8     9   ar
     9     9    10   ar
    10    10    11    1
    11    11    12    1
    12    10    13   ar
    13    13    14    1
    14    13    15   ar
    15    15    16    1
    16    16    17    1
    17    15    18   ar
    18    18    19    1
    19    18    20   ar
    20     9    20   ar
    21    20    21   ar
    22    21    22    2
    23    21    23   ar
    24     7    23   ar
    25    23    24    1
    26    24    25    1
    27     6    26   ar
    28    26    27   ar
    29     3    27   ar
    30    27    28    1
    31     1    29    1
    32     1    30    1
    33     1    31    1
    34     4    32    1
    35     5    33    1
    36    12    34    1
    37    12    35    1
    38    12    36    1
    39    14    37    1
    40    17    38    1
    41    17    39    1
    42    17    40    1
    43    19    41    1
    44    25    42    1
    45    25    43    1
    46    25    44    1
    47    26    45    1
    48    28    46    1
