@<TRIPOS>MOLECULE
ligand_15
 45 46 0 0 0
SMALL
GASTEIGER

@<TRIPOS>ATOM
      1 C           0.6365   -0.0771    0.5130 C.3     1  UNL1        0.0788
      2 O           2.0133   -0.0221    0.1456 O.3     1  UNL1       -0.4942
      3 C           2.8488   -0.3129    1.1941 C.ar    1  UNL1        0.1378
      4 C           2.8059   -1.5635    1.8139 C.ar    1  UNL1        0.0224
      5 C           3.6924   -1.8373    2.8499 C.ar    1  UNL1        0.1206
      6 O           3.6770   -3.0376    3.4979 O.3     1  UNL1       -0.5066
      7 C           4.6357   -0.8974    3.2596 C.ar    1  UNL1       -0.0160
      8 C           4.7138    0.3579    2.6331 C.ar    1  UNL1       -0.0264
      9 C           3.8054    0.6363    1.5895 C.ar    1  UNL1        0.1039
     10 C           3.7772    1.9622    0.9519 C.2     1  UNL1        0.3433
     11 O           3.4115    2.9717    1.5307 O.2     1  UNL1       -0.2448
     12 O           4.2842    1.8502   -0.2969 O.3     1  UNL1       -0.4581
     13 C           4.4966    3.0465   -1.0824 C.3     1  UNL1        0.1006
     14 C           3.1753    3.7227   -1.4341 C.3     1  UNL1       -0.0277
     15 C           5.5091    4.0009   -0.4248 C.3     1  UNL1       -0.0159
     16 C           6.8227    3.2849   -0.0842 C.3     1  UNL1       -0.0497
     17 C           7.4998    3.8636    1.1605 C.3     1  UNL1       -0.0529
     18 C           8.6188    2.9575    1.6854 C.3     1  UNL1       -0.0530
     19 C           8.2297    2.0358    2.8540 C.3     1  UNL1       -0.0528
     20 C           7.1733    0.9646    2.5503 C.3     1  UNL1       -0.0490
     21 C           5.7806    1.3347    3.0814 C.3     1  UNL1       -0.0267
     22 H           0.0659    0.4473   -0.2595 H       1  UNL1        0.0660
     23 H           0.4510    0.4237    1.4698 H       1  UNL1        0.0660
     24 H           0.2858   -1.1132    0.5445 H       1  UNL1        0.0660
     25 H           2.0974   -2.3121    1.4780 H       1  UNL1        0.0691
     26 H           2.9789   -3.5949    3.1162 H       1  UNL1        0.2921
     27 H           5.3155   -1.1517    4.0706 H       1  UNL1        0.0657
     28 H           4.9377    2.6897   -2.0214 H       1  UNL1        0.0731
     29 H           2.7015    4.1762   -0.5584 H       1  UNL1        0.0265
     30 H           2.4670    2.9906   -1.8365 H       1  UNL1        0.0265
     31 H           3.3268    4.5105   -2.1784 H       1  UNL1        0.0265
     32 H           5.0746    4.4337    0.4821 H       1  UNL1        0.0301
     33 H           5.7162    4.8431   -1.0964 H       1  UNL1        0.0301
     34 H           7.5047    3.3640   -0.9405 H       1  UNL1        0.0266
     35 H           6.6495    2.2174    0.0566 H       1  UNL1        0.0266
     36 H           6.7729    4.0592    1.9557 H       1  UNL1        0.0265
     37 H           7.9276    4.8367    0.8885 H       1  UNL1        0.0265
     38 H           9.4270    3.6049    2.0500 H       1  UNL1        0.0265
     39 H           9.0509    2.3637    0.8708 H       1  UNL1        0.0265
     40 H           7.9264    2.6419    3.7163 H       1  UNL1        0.0265
     41 H           9.1477    1.5168    3.1603 H       1  UNL1        0.0265
     42 H           7.4843    0.0332    3.0425 H       1  UNL1        0.0268
     43 H           7.1470    0.7308    1.4816 H       1  UNL1        0.0268
     44 H           5.5201    2.3553    2.7938 H       1  UNL1        0.0313
     45 H           5.8024    1.3450    4.1797 H       1  UNL1        0.0313
@<TRIPOS>BOND
     1     1     2    1
     2     2     3    1
     3     3     4   ar
     4     4     5   ar
     5     5     6    1
     6     5     7   ar
     7     7     8   ar
     8     8     9   ar
     9     3     9   ar
    10     9    10    1
    11    10    11    2
    12    10    12    1
    13    12    13    1
    14    13    14    1
    15    13    15    1
    16    15    16    1
    17    16    17    1
    18    17    18    1
    19    18    19    1
    20    19    20    1
    21    20    21    1
    22     8    21    1
    23     1    22    1
    24     1    23    1
    25     1    24    1
    26     4    25    1
    27     6    26    1
    28     7    27    1
    29    13    28    1
    30    14    29    1
    31    14    30    1
    32    14    31    1
    33    15    32    1
    34    15    33    1
    35    16    34    1
    36    16    35    1
    37    17    36    1
    38    17    37    1
    39    18    38    1
    40    18    39    1
    41    19    40    1
    42    19    41    1
    43    20    42    1
    44    20    43    1
    45    21    44    1
    46    21    45    1
