@<TRIPOS>MOLECULE
ligand_7
 29 30 0 0 0
SMALL
GASTEIGER

@<TRIPOS>ATOM
      1 C           1.0319    0.0698   -0.1091 C.3     1  UNL1        0.0790
      2 O           2.4485   -0.0520   -0.0538 O.3     1  UNL1       -0.4914
      3 C           3.0728   -0.0140   -1.2736 C.ar    1  UNL1        0.1615
      4 C           2.6888    0.8452   -2.3060 C.ar    1  UNL1       -0.0128
      5 C           3.3908    0.8550   -3.5222 C.ar    1  UNL1       -0.0381
      6 C           4.4770   -0.0171   -3.7147 C.ar    1  UNL1       -0.0265
      7 C           4.8794   -0.8544   -2.6635 C.ar    1  UNL1       -0.0119
      8 C           4.1825   -0.8447   -1.4547 C.ar    1  UNL1        0.1588
      9 O           4.5742   -1.6692   -0.4337 O.3     1  UNL1       -0.5033
     10 C           5.2634   -0.0061   -5.0097 C.3     1  UNL1        0.0241
     11 N           4.5322    0.5983   -6.1374 N.3     1  UNL1       -0.3008
     12 C           5.4044    0.7156   -7.3036 C.3     1  UNL1       -0.0124
     13 C           4.0044    1.9116   -5.7423 C.3     1  UNL1        0.0029
     14 C           2.9418    1.7563   -4.6458 C.3     1  UNL1       -0.0144
     15 H           0.6294   -0.2794    0.8466 H       1  UNL1        0.0660
     16 H           0.6003   -0.5530   -0.9009 H       1  UNL1        0.0660
     17 H           0.7367    1.1165   -0.2314 H       1  UNL1        0.0660
     18 H           1.8549    1.5275   -2.1753 H       1  UNL1        0.0658
     19 H           5.7343   -1.5097   -2.8004 H       1  UNL1        0.0658
     20 H           5.3567   -2.1678   -0.7130 H       1  UNL1        0.2923
     21 H           5.5100   -1.0423   -5.2731 H       1  UNL1        0.0476
     22 H           6.2038    0.5300   -4.8235 H       1  UNL1        0.0476
     23 H           5.7766   -0.2696   -7.6060 H       1  UNL1        0.0391
     24 H           6.2653    1.3674   -7.1158 H       1  UNL1        0.0391
     25 H           4.8494    1.1169   -8.1588 H       1  UNL1        0.0391
     26 H           3.5352    2.4096   -6.5999 H       1  UNL1        0.0430
     27 H           4.8142    2.5665   -5.3924 H       1  UNL1        0.0430
     28 H           2.0283    1.3305   -5.0798 H       1  UNL1        0.0326
     29 H           2.6953    2.7488   -4.2504 H       1  UNL1        0.0326
@<TRIPOS>BOND
     1     1     2    1
     2     2     3    1
     3     3     4   ar
     4     4     5   ar
     5     5     6   ar
     6     6     7   ar
     7     7     8   ar
     8     3     8   ar
     9     8     9    1
    10     6    10    1
    11    10    11    1
    12    11    12    1
    13    11    13    1
    14    13    14    1
    15     5    14    1
    16     1    15    1
    17     1    16    1
    18     1    17    1
    19     4    18    1
    20     7    19    1
    21     9    20    1
    22    10    21    1
    23    10    22    1
    24    12    23    1
    25    12    24    1
    26    12    25    1
    27    13    26    1
    28    13    27    1
    29    14    28    1
    30    14    29    1
