@<TRIPOS>MOLECULE
ligand_29
 24 24 0 0 0
SMALL
GASTEIGER

@<TRIPOS>ATOM
      1 C           1.1431   -0.1564   -0.0654 C.3     1  UNL1        0.0820
      2 O           2.5607   -0.2020   -0.2390 O.3     1  UNL1       -0.4645
      3 C           3.0714    0.8741   -0.8866 C.2     1  UNL1        0.3389
      4 O           2.4371    1.8183   -1.3291 O.2     1  UNL1       -0.2450
      5 C           4.5531    0.7872   -0.9382 C.ar    1  UNL1        0.0590
      6 C           5.2780    1.9733   -1.1064 C.ar    1  UNL1       -0.0470
      7 C           6.6748    1.9437   -1.1516 C.ar    1  UNL1       -0.0470
      8 C           7.3623    0.7270   -1.0412 C.ar    1  UNL1        0.0590
      9 C           8.8501    0.7580   -1.0928 C.2     1  UNL1        0.3389
     10 O           9.4964    1.7855   -1.2240 O.2     1  UNL1       -0.2450
     11 O           9.3627   -0.4917   -0.9710 O.3     1  UNL1       -0.4645
     12 C          10.7905   -0.5340   -1.0044 C.3     1  UNL1        0.0820
     13 C           6.6348   -0.4620   -0.8864 C.ar    1  UNL1       -0.0470
     14 C           5.2355   -0.4321   -0.8332 C.ar    1  UNL1       -0.0470
     15 H           0.8654   -0.9289    0.6570 H       1  UNL1        0.0661
     16 H           0.6459   -0.3699   -1.0160 H       1  UNL1        0.0661
     17 H           0.8200    0.8119    0.3315 H       1  UNL1        0.0661
     18 H           4.7587    2.9264   -1.1946 H       1  UNL1        0.0626
     19 H           7.2240    2.8763   -1.2728 H       1  UNL1        0.0626
     20 H          11.1011   -1.5786   -0.9156 H       1  UNL1        0.0661
     21 H          11.2092    0.0249   -0.1615 H       1  UNL1        0.0661
     22 H          11.1649   -0.1410   -1.9549 H       1  UNL1        0.0661
     23 H           7.1428   -1.4205   -0.8052 H       1  UNL1        0.0626
     24 H           4.6895   -1.3657   -0.7164 H       1  UNL1        0.0626
@<TRIPOS>BOND
     1     1     2    1
     2     2     3    1
     3     3     4    2
     4     3     5    1
     5     5     6   ar
     6     6     7   ar
     7     7     8   ar
     8     8     9    1
     9     9    10    2
    10     9    11    1
    11    11    12    1
    12     8    13   ar
    13    13    14   ar
    14     5    14   ar
    15     1    15    1
    16     1    16    1
    17     1    17    1
    18     6    18    1
    19     7    19    1
    20    12    20    1
    21    12    21    1
    22    12    22    1
    23    13    23    1
    24    14    24    1
