@<TRIPOS>MOLECULE
ligand_11
 42 45 0 0 0
SMALL
GASTEIGER

@<TRIPOS>ATOM
      1 C           0.8816   -0.0388    0.3781 C.3     1  UNL1       -0.0227
      2 C           2.3682   -0.1603    0.0031 C.3     1  UNL1        0.1310
      3 C           3.1909   -0.0834    1.3003 C.3     1  UNL1       -0.0227
      4 O           2.5184   -1.4814   -0.5528 O.3     1  UNL1       -0.4833
      5 C           3.5377   -1.6948   -1.4426 C.ar    1  UNL1        0.1282
      6 C           3.6896   -3.0252   -1.8485 C.ar    1  UNL1        0.0233
      7 C           4.6932   -3.2851   -2.7759 C.ar    1  UNL1        0.1392
      8 O           4.9677   -4.4995   -3.3264 O.2     1  UNL1       -0.4547
      9 C           6.0108   -4.3263   -4.1904 C.ar    1  UNL1        0.1365
     10 C           6.4447   -5.5100   -4.9167 C.ar    1  UNL1        0.0242
     11 C           7.8033   -5.7155   -5.1987 C.ar    1  UNL1       -0.0093
     12 C           8.2002   -6.8387   -5.9232 C.ar    1  UNL1        0.1210
     13 O           9.5151   -7.0752   -6.2022 O.3     1  UNL1       -0.5066
     14 C           7.2690   -7.7591   -6.3904 C.ar    1  UNL1        0.0213
     15 C           5.9236   -7.5528   -6.1122 C.ar    1  UNL1        0.1210
     16 O           4.9668   -8.4180   -6.5562 O.3     1  UNL1       -0.5066
     17 C           5.5074   -6.4471   -5.3759 C.ar    1  UNL1       -0.0093
     18 C           6.4197   -3.0062   -4.1741 C.ar    1  UNL1       -0.0081
     19 C           5.5532   -2.3212   -3.2823 C.ar    1  UNL1        0.0213
     20 C           5.3915   -0.9899   -2.8601 C.ar    1  UNL1       -0.0442
     21 C           4.3551   -0.6789   -1.9554 C.ar    1  UNL1       -0.0023
     22 C           4.1439    0.7492   -1.5491 C.3     1  UNL1        0.0057
     23 C           2.7276    0.9462   -1.0173 C.3     1  UNL1        0.0983
     24 O           2.5849    2.2632   -0.4807 O.3     1  UNL1       -0.3875
     25 H           0.5866   -0.8369    1.0696 H       1  UNL1        0.0269
     26 H           0.2482   -0.1546   -0.5092 H       1  UNL1        0.0269
     27 H           0.6523    0.9242    0.8454 H       1  UNL1        0.0269
     28 H           2.9083   -0.8920    1.9848 H       1  UNL1        0.0269
     29 H           3.0443    0.8683    1.8211 H       1  UNL1        0.0269
     30 H           4.2613   -0.2115    1.1107 H       1  UNL1        0.0269
     31 H           3.0487   -3.8147   -1.4761 H       1  UNL1        0.0691
     32 H           8.5420   -5.0039   -4.8423 H       1  UNL1        0.0661
     33 H          10.0556   -6.3935   -5.7698 H       1  UNL1        0.2921
     34 H           7.6069   -8.6185   -6.9592 H       1  UNL1        0.0691
     35 H           5.3989   -9.1225   -7.0668 H       1  UNL1        0.2921
     36 H           4.4470   -6.3085   -5.1777 H       1  UNL1        0.0661
     37 H           7.2154   -2.5807   -4.7672 H       1  UNL1        0.0661
     38 H           6.0383   -0.2107   -3.2534 H       1  UNL1        0.0628
     39 H           4.2966    1.4203   -2.4038 H       1  UNL1        0.0341
     40 H           4.8911    1.0330   -0.7982 H       1  UNL1        0.0341
     41 H           2.0356    0.8741   -1.8674 H       1  UNL1        0.0636
     42 H           3.2872    2.4092    0.1755 H       1  UNL1        0.2100
@<TRIPOS>BOND
     1     1     2    1
     2     2     3    1
     3     2     4    1
     4     4     5    1
     5     5     6   ar
     6     6     7   ar
     7     7     8   ar
     8     8     9   ar
     9     9    10    1
    10    10    11   ar
    11    11    12   ar
    12    12    13    1
    13    12    14   ar
    14    14    15   ar
    15    15    16    1
    16    15    17   ar
    17    10    17   ar
    18     9    18   ar
    19    18    19   ar
    20     7    19   ar
    21    19    20   ar
    22    20    21   ar
    23     5    21   ar
    24    21    22    1
    25    22    23    1
    26     2    23    1
    27    23    24    1
    28     1    25    1
    29     1    26    1
    30     1    27    1
    31     3    28    1
    32     3    29    1
    33     3    30    1
    34     6    31    1
    35    11    32    1
    36    13    33    1
    37    14    34    1
    38    16    35    1
    39    17    36    1
    40    18    37    1
    41    20    38    1
    42    22    39    1
    43    22    40    1
    44    23    41    1
    45    24    42    1
