@<TRIPOS>MOLECULE
ligand_20
 79 84 0 0 0
SMALL
GASTEIGER

@<TRIPOS>ATOM
      1 C           3.5721   -0.5860   -1.5399 C.3     1  UNL1       -0.0596
      2 C           3.0154    0.1687   -0.3310 C.3     1  UNL1       -0.0101
      3 C           3.7641   -0.2339    0.9283 C.3     1  UNL1        0.0095
      4 C           4.3599    1.0496    1.5326 C.3     1  UNL1        0.2001
      5 O           5.8183    0.9009    1.7086 O.3     1  UNL1       -0.3424
      6 C           5.9036    0.0507    2.8259 C.3     1  UNL1        0.0684
      7 C           7.0782   -0.1679    3.7520 C.3     1  UNL1       -0.0225
      8 C           6.3606   -1.1371    4.8017 C.3     1  UNL1       -0.0296
      9 C           6.6789   -2.5709    4.3110 C.3     1  UNL1       -0.0319
     10 C           7.8382   -3.1737    5.1056 C.3     1  UNL1       -0.0493
     11 C           8.5215   -4.2127    4.2322 C.3     1  UNL1       -0.0494
     12 C           7.5363   -5.2974    3.7941 C.3     1  UNL1       -0.0329
     13 C           8.2465   -6.3057    2.8884 C.3     1  UNL1       -0.0235
     14 C           7.3827   -7.5454    2.6899 C.3     1  UNL1        0.0555
     15 O           7.9634   -8.3649    1.6780 O.3     1  UNL1       -0.3918
     16 C           5.9357   -7.2283    2.3013 C.3     1  UNL1       -0.0263
     17 C           5.2872   -6.0756    3.0984 C.3     1  UNL1       -0.0447
     18 C           6.1773   -4.7967    3.1664 C.3     1  UNL1       -0.0236
     19 C           6.3358   -4.2780    1.7037 C.3     1  UNL1       -0.0590
     20 C           5.5714   -3.6300    4.0991 C.3     1  UNL1       -0.0062
     21 C           4.2934   -2.9439    3.5779 C.3     1  UNL1        0.0593
     22 O           3.2140   -3.8729    3.4941 O.3     1  UNL1       -0.3915
     23 C           3.8319   -1.7943    4.4807 C.3     1  UNL1       -0.0205
     24 C           4.8354   -0.6688    4.8093 C.3     1  UNL1       -0.0186
     25 C           4.4635   -0.1306    6.2122 C.3     1  UNL1       -0.0588
     26 C           4.9025    0.5492    3.8463 C.3     1  UNL1        0.0248
     27 C           3.9017    1.3530    3.0097 C.3     1  UNL1        0.1224
     28 C           2.4388    1.2633    3.3879 C.3     1  UNL1       -0.0306
     29 O           4.2316    2.7619    3.2577 O.3     1  UNL1       -0.3831
     30 O           4.0769    2.1035    0.6156 O.3     1  UNL1       -0.3398
     31 C           3.1103    1.7017   -0.3656 C.3     1  UNL1        0.0700
     32 C           3.5336    2.3018   -1.7074 C.3     1  UNL1       -0.0357
     33 C           1.7673    2.3301    0.0349 C.3     1  UNL1       -0.0357
     34 H           3.4648   -1.6675   -1.3928 H       1  UNL1        0.0233
     35 H           4.6360   -0.3794   -1.6945 H       1  UNL1        0.0233
     36 H           3.0269   -0.3299   -2.4532 H       1  UNL1        0.0233
     37 H           1.9663   -0.1439   -0.2423 H       1  UNL1        0.0327
     38 H           4.5363   -0.9735    0.6893 H       1  UNL1        0.0321
     39 H           3.0780   -0.7336    1.6174 H       1  UNL1        0.0321
     40 H           5.6601   -0.9339    2.4281 H       1  UNL1        0.0601
     41 H           7.4217    0.7568    4.2304 H       1  UNL1        0.0293
     42 H           7.9526   -0.5941    3.2502 H       1  UNL1        0.0293
     43 H           6.8112   -0.9695    5.7877 H       1  UNL1        0.0310
     44 H           7.0890   -2.4206    3.3125 H       1  UNL1        0.0307
     45 H           7.4722   -3.6258    6.0366 H       1  UNL1        0.0268
     46 H           8.5715   -2.4096    5.3862 H       1  UNL1        0.0268
     47 H           9.3451   -4.6640    4.7990 H       1  UNL1        0.0268
     48 H           8.9717   -3.7263    3.3583 H       1  UNL1        0.0268
     49 H           7.2749   -5.8307    4.7219 H       1  UNL1        0.0307
     50 H           9.2053   -6.6081    3.3299 H       1  UNL1        0.0293
     51 H           8.5211   -5.8585    1.9249 H       1  UNL1        0.0293
     52 H           7.3820   -8.1263    3.6193 H       1  UNL1        0.0593
     53 H           8.9139   -8.4475    1.8684 H       1  UNL1        0.2098
     54 H           5.3336   -8.1376    2.4247 H       1  UNL1        0.0290
     55 H           5.8840   -7.0134    1.2264 H       1  UNL1        0.0290
     56 H           5.0740   -6.4289    4.1152 H       1  UNL1        0.0271
     57 H           4.3209   -5.8580    2.6330 H       1  UNL1        0.0271
     58 H           6.7549   -5.0243    1.0249 H       1  UNL1        0.0235
     59 H           6.9860   -3.4057    1.6187 H       1  UNL1        0.0235
     60 H           5.3627   -4.0127    1.2760 H       1  UNL1        0.0235
     61 H           5.3250   -4.0941    5.0652 H       1  UNL1        0.0334
     62 H           4.4357   -2.5665    2.5671 H       1  UNL1        0.0596
     63 H           3.0480   -4.2342    4.3811 H       1  UNL1        0.2098
     64 H           3.4981   -2.2584    5.4208 H       1  UNL1        0.0296
     65 H           2.9102   -1.3715    4.0691 H       1  UNL1        0.0296
     66 H           4.5026   -0.9266    6.9641 H       1  UNL1        0.0235
     67 H           3.4514    0.2879    6.2175 H       1  UNL1        0.0235
     68 H           5.1503    0.6566    6.5429 H       1  UNL1        0.0235
     69 H           5.4031    1.3295    4.4454 H       1  UNL1        0.0361
     70 H           1.9582    0.3307    3.0974 H       1  UNL1        0.0259
     71 H           1.8778    2.0959    2.9511 H       1  UNL1        0.0259
     72 H           2.3207    1.3878    4.4701 H       1  UNL1        0.0259
     73 H           4.1164    2.9555    4.1988 H       1  UNL1        0.2104
     74 H           4.5313    1.9599   -2.0019 H       1  UNL1        0.0257
     75 H           3.5972    3.3939   -1.6411 H       1  UNL1        0.0257
     76 H           2.8240    2.0515   -2.5034 H       1  UNL1        0.0257
     77 H           1.3355    1.8289    0.9044 H       1  UNL1        0.0257
     78 H           1.0324    2.2585   -0.7733 H       1  UNL1        0.0257
     79 H           1.8935    3.3839    0.3078 H       1  UNL1        0.0257
@<TRIPOS>BOND
     1     2     3    1
     2     3     4    1
     3     4     5    1
     4     5     6    1
     5     6     7    1
     6     7     8    1
     7     8     9    1
     8     9    10    1
     9    10    11    1
    10    11    12    1
    11    12    13    1
    12    13    14    1
    13    14    16    1
    14    16    17    1
    15    17    18    1
    16    12    18    1
    17    18    20    1
    18     9    20    1
    19    20    21    1
    20    21    23    1
    21    23    24    1
    22     8    24    1
    23    24    26    1
    24     6    26    1
    25    26    27    1
    26     4    27    1
    27     4    30    1
    28    30    31    1
    29     2    31    1
    30    18    19    1
    31    21    22    1
    32    24    25    1
    33    31    32    1
    34    31    33    1
    35    14    15    1
    36    27    29    1
    37    27    28    1
    38     2     1    1
    39     1    34    1
    40     1    35    1
    41     1    36    1
    42     2    37    1
    43     3    38    1
    44     3    39    1
    45     6    40    1
    46     7    41    1
    47     7    42    1
    48     8    43    1
    49     9    44    1
    50    10    45    1
    51    10    46    1
    52    11    47    1
    53    11    48    1
    54    12    49    1
    55    13    50    1
    56    13    51    1
    57    14    52    1
    58    15    53    1
    59    16    54    1
    60    16    55    1
    61    17    56    1
    62    17    57    1
    63    19    58    1
    64    19    59    1
    65    19    60    1
    66    20    61    1
    67    21    62    1
    68    22    63    1
    69    23    64    1
    70    23    65    1
    71    25    66    1
    72    25    67    1
    73    25    68    1
    74    26    69    1
    75    28    70    1
    76    28    71    1
    77    28    72    1
    78    29    73    1
    79    32    74    1
    80    32    75    1
    81    32    76    1
    82    33    77    1
    83    33    78    1
    84    33    79    1
