@<TRIPOS>MOLECULE
ligand_5
 34 35 0 0 0
SMALL
GASTEIGER

@<TRIPOS>ATOM
      1 C           1.0760    0.4319   -0.0017 C.3     1  UNL1       -0.0394
      2 C           2.5661    0.2151   -0.0359 C.ar    1  UNL1       -0.0467
      3 C           3.3433    1.3934   -0.0459 C.ar    1  UNL1       -0.0547
      4 C           4.7218    1.3190   -0.0915 C.ar    1  UNL1       -0.0357
      5 C           5.3569    0.0848   -0.1026 C.ar    1  UNL1        0.0240
      6 C           4.6435   -1.1173   -0.0828 C.ar    1  UNL1       -0.0362
      7 C           5.3630   -2.4441   -0.0977 C.3     1  UNL1       -0.0388
      8 C           3.2038   -1.0615   -0.0610 C.ar    1  UNL1       -0.0387
      9 C           2.4823   -2.4106   -0.0776 C.3     1  UNL1       -0.0039
     10 C           0.9628   -2.5554   -0.0769 C.3     1  UNL1        0.0482
     11 O           0.6052   -3.9380   -0.1270 O.3     1  UNL1       -0.3947
     12 C           6.8026    0.3613   -0.1699 C.2     1  UNL1        0.1668
     13 O           7.6933   -0.4636   -0.0676 O.2     1  UNL1       -0.2917
     14 C           7.0146    1.8378   -0.4460 C.3     1  UNL1        0.0233
     15 C           8.1834    2.4210    0.3261 C.3     1  UNL1       -0.0551
     16 C           5.6708    2.4760   -0.0734 C.3     1  UNL1       -0.0174
     17 H           0.8231    1.4976    0.0500 H       1  UNL1        0.0278
     18 H           0.6376   -0.0231    0.8889 H       1  UNL1        0.0278
     19 H           0.6109    0.0550   -0.9155 H       1  UNL1        0.0278
     20 H           2.8667    2.3716   -0.0197 H       1  UNL1        0.0623
     21 H           6.4485   -2.3582   -0.1107 H       1  UNL1        0.0278
     22 H           5.0896   -3.0142   -0.9912 H       1  UNL1        0.0278
     23 H           5.1112   -3.0209    0.7980 H       1  UNL1        0.0278
     24 H           2.8413   -2.9862    0.7862 H       1  UNL1        0.0335
     25 H           2.8333   -2.9499   -0.9680 H       1  UNL1        0.0335
     26 H           0.5037   -2.0745   -0.9432 H       1  UNL1        0.0560
     27 H           0.5271   -2.1542    0.8405 H       1  UNL1        0.0560
     28 H           0.9054   -4.2877   -0.9838 H       1  UNL1        0.2094
     29 H           7.1900    1.9429   -1.5245 H       1  UNL1        0.0381
     30 H           8.0703    2.2655    1.4043 H       1  UNL1        0.0237
     31 H           8.2732    3.4961    0.1398 H       1  UNL1        0.0237
     32 H           9.1225    1.9452    0.0238 H       1  UNL1        0.0237
     33 H           5.3876    3.2440   -0.8002 H       1  UNL1        0.0320
     34 H           5.6898    2.9195    0.9287 H       1  UNL1        0.0320
@<TRIPOS>BOND
     1     1     2    1
     2     2     3   ar
     3     3     4   ar
     4     4     5   ar
     5     5     6   ar
     6     6     7    1
     7     6     8   ar
     8     2     8   ar
     9     8     9    1
    10     9    10    1
    11    10    11    1
    12     5    12    1
    13    12    13    2
    14    12    14    1
    15    14    16    1
    16     4    16    1
    17    14    15    1
    18     1    17    1
    19     1    18    1
    20     1    19    1
    21     3    20    1
    22     7    21    1
    23     7    22    1
    24     7    23    1
    25     9    24    1
    26     9    25    1
    27    10    26    1
    28    10    27    1
    29    11    28    1
    30    14    29    1
    31    15    30    1
    32    15    31    1
    33    15    32    1
    34    16    33    1
    35    16    34    1
