@<TRIPOS>MOLECULE
ligand_36
 11 10 0 0 0
SMALL
GASTEIGER

@<TRIPOS>ATOM
      1 C           1.0092    0.0392   -0.0024 C.3     1  UNL1        0.0541
      2 S           2.7822    0.1004   -0.0810 S.O2    1  UNL1       -0.0366
      3 C           3.2794   -0.9479    1.2635 C.3     1  UNL1        0.0541
      4 O           3.1942   -0.5367   -1.3164 O.2     1  UNL1       -0.1749
      5 O           3.1941    1.4539    0.2357 O.2     1  UNL1       -0.1749
      6 H           0.6855   -0.9943   -0.1384 H       1  UNL1        0.0463
      7 H           0.6112    0.6645   -0.8043 H       1  UNL1        0.0463
      8 H           0.6855    0.4230    0.9667 H       1  UNL1        0.0463
      9 H           2.8892   -1.9525    1.0905 H       1  UNL1        0.0463
     10 H           2.8892   -0.5352    2.1956 H       1  UNL1        0.0463
     11 H           4.3708   -0.9702    1.2921 H       1  UNL1        0.0463
@<TRIPOS>BOND
     1     1     2    1
     2     2     3    1
     3     2     4    2
     4     2     5    2
     5     1     6    1
     6     1     7    1
     7     1     8    1
     8     3     9    1
     9     3    10    1
    10     3    11    1
