@<TRIPOS>MOLECULE
ligand_34
 41 44 0 0 0
SMALL
GASTEIGER

@<TRIPOS>ATOM
      1 C           1.1253   -0.1703    0.0934 C.3     1  UNL1        0.0790
      2 O           2.5018   -0.4353   -0.1684 O.3     1  UNL1       -0.4914
      3 C           3.0897   -1.0261    0.9231 C.ar    1  UNL1        0.1619
      4 C           2.8735   -2.3947    1.1557 C.ar    1  UNL1       -0.0128
      5 C           3.5018   -3.0181    2.2297 C.ar    1  UNL1       -0.0375
      6 C           4.3504   -2.2468    3.0161 C.ar    1  UNL1       -0.0190
      7 C           4.5781   -0.8840    2.8095 C.ar    1  UNL1        0.0163
      8 C           3.9515   -0.2687    1.7359 C.ar    1  UNL1        0.1632
      9 O           4.1290    1.0501    1.4376 O.3     1  UNL1       -0.5031
     10 C           5.5593   -0.3642    3.8438 C.3     1  UNL1        0.0382
     11 C           5.1064    0.9240    4.5017 C.2     1  UNL1       -0.0661
     12 C           5.7961    2.0741    4.4766 C.2     1  UNL1       -0.0177
     13 C           7.0798    2.1743    3.7497 C.2     1  UNL1        0.1785
     14 O           7.6693    3.2431    3.6438 O.2     1  UNL1       -0.2879
     15 C           7.6113    0.9370    3.1378 C.2     1  UNL1       -0.0177
     16 C           6.9280   -0.2161    3.2024 C.2     1  UNL1       -0.0661
     17 C           5.5296   -1.5068    4.9195 C.3     1  UNL1       -0.0164
     18 C           5.0960   -2.7949    4.1944 C.3     1  UNL1        0.0374
     19 N           4.2902   -3.8029    4.9121 N.3     1  UNL1       -0.2981
     20 C           3.0662   -3.2637    5.5202 C.3     1  UNL1       -0.0122
     21 C           3.9614   -4.8781    3.9397 C.3     1  UNL1        0.0032
     22 C           3.2408   -4.4460    2.6311 C.3     1  UNL1       -0.0144
     23 H           0.7670    0.5251   -0.6715 H       1  UNL1        0.0660
     24 H           0.9735    0.2965    1.0735 H       1  UNL1        0.0660
     25 H           0.5368   -1.0906    0.0154 H       1  UNL1        0.0660
     26 H           2.2120   -2.9554    0.5021 H       1  UNL1        0.0658
     27 H           4.9118    1.3796    1.9037 H       1  UNL1        0.2923
     28 H           4.1588    0.9023    5.0375 H       1  UNL1        0.0585
     29 H           5.4447    2.9755    4.9649 H       1  UNL1        0.0653
     30 H           8.5654    1.0222    2.6310 H       1  UNL1        0.0653
     31 H           7.3561   -1.0957    2.7247 H       1  UNL1        0.0585
     32 H           4.8286   -1.2596    5.7258 H       1  UNL1        0.0298
     33 H           6.5043   -1.6474    5.4059 H       1  UNL1        0.0298
     34 H           6.0098   -3.2810    3.8234 H       1  UNL1        0.0513
     35 H           2.4916   -2.6047    4.8595 H       1  UNL1        0.0391
     36 H           3.3048   -2.7039    6.4297 H       1  UNL1        0.0391
     37 H           2.3934   -4.0718    5.8304 H       1  UNL1        0.0391
     38 H           3.3782   -5.6678    4.4314 H       1  UNL1        0.0430
     39 H           4.9060   -5.3680    3.6652 H       1  UNL1        0.0430
     40 H           2.1604   -4.5689    2.7712 H       1  UNL1        0.0326
     41 H           3.5564   -5.1111    1.8183 H       1  UNL1        0.0326
@<TRIPOS>BOND
     1     1     2    1
     2     2     3    1
     3     3     4   ar
     4     4     5   ar
     5     5     6   ar
     6     6     7   ar
     7     7     8   ar
     8     3     8   ar
     9     8     9    1
    10     7    10    1
    11    10    11    1
    12    11    12    2
    13    12    13    1
    14    13    14    2
    15    13    15    1
    16    15    16    2
    17    10    16    1
    18    10    17    1
    19    17    18    1
    20     6    18    1
    21    18    19    1
    22    19    20    1
    23    19    21    1
    24    21    22    1
    25     5    22    1
    26     1    23    1
    27     1    24    1
    28     1    25    1
    29     4    26    1
    30     9    27    1
    31    11    28    1
    32    12    29    1
    33    15    30    1
    34    16    31    1
    35    17    32    1
    36    17    33    1
    37    18    34    1
    38    20    35    1
    39    20    36    1
    40    20    37    1
    41    21    38    1
    42    21    39    1
    43    22    40    1
    44    22    41    1
