@<TRIPOS>MOLECULE
ligand_28
 48 50 0 0 0
SMALL
GASTEIGER

@<TRIPOS>ATOM
      1 C           1.0041    0.0853   -0.0301 C.2     1  UNL1       -0.0952
      2 C           2.3472    0.1051    0.0347 C.2     1  UNL1       -0.0504
      3 C           3.1868   -0.1752   -1.1804 C.3     1  UNL1       -0.0397
      4 C           3.0369    0.4186    1.3082 C.ar    1  UNL1       -0.0224
      5 C           2.5868   -0.1227    2.5104 C.ar    1  UNL1       -0.0541
      6 C           3.2252    0.1825    3.7152 C.ar    1  UNL1       -0.0572
      7 C           4.3572    1.0251    3.7789 C.ar    1  UNL1       -0.0380
      8 C           4.8312    1.5490    2.5727 C.ar    1  UNL1       -0.0431
      9 C           4.1704    1.2397    1.3573 C.ar    1  UNL1       -0.0509
     10 C           6.0728    2.3804    2.4887 C.3     1  UNL1       -0.0271
     11 C           6.4757    3.0638    3.7806 C.3     1  UNL1       -0.0444
     12 C           6.2545    2.2938    5.1016 C.3     1  UNL1       -0.0158
     13 C           7.5742    1.8124    5.7969 C.3     1  UNL1        0.0684
     14 C           8.3625    3.0804    6.2750 C.3     1  UNL1       -0.0491
     15 C           8.5590    1.0198    4.9204 C.2     1  UNL1        0.3110
     16 O           9.7762    1.0752    5.0567 O.2     1  UNL1       -0.2504
     17 O           8.0255    0.2060    3.9940 O.3     1  UNL1       -0.4802
     18 C           7.2804    1.0299    7.0937 C.3     1  UNL1       -0.0372
     19 C           6.2125   -0.0442    7.0316 C.3     1  UNL1       -0.0512
     20 C           5.3456   -0.0567    5.7903 C.3     1  UNL1       -0.0433
     21 C           5.0117    1.3170    5.1432 C.3     1  UNL1       -0.0030
     22 C           3.9315    2.0217    6.0199 C.3     1  UNL1       -0.0552
     23 H           0.4864   -0.1420   -0.9572 H       1  UNL1        0.0538
     24 H           0.3762    0.3082    0.8273 H       1  UNL1        0.0538
     25 H           2.5716   -0.4811   -2.0346 H       1  UNL1        0.0278
     26 H           3.8917   -0.9895   -0.9819 H       1  UNL1        0.0278
     27 H           3.7480    0.7113   -1.4911 H       1  UNL1        0.0278
     28 H           1.7355   -0.7995    2.5301 H       1  UNL1        0.0624
     29 H           2.8108   -0.2658    4.6160 H       1  UNL1        0.0621
     30 H           4.5535    1.6730    0.4345 H       1  UNL1        0.0626
     31 H           5.9289    3.1666    1.7344 H       1  UNL1        0.0313
     32 H           6.8894    1.7476    2.1239 H       1  UNL1        0.0313
     33 H           5.9080    4.0024    3.8488 H       1  UNL1        0.0272
     34 H           7.5201    3.3770    3.6704 H       1  UNL1        0.0272
     35 H           5.9569    3.1167    5.7721 H       1  UNL1        0.0320
     36 H           7.7640    3.6833    6.9695 H       1  UNL1        0.0240
     37 H           8.6592    3.7278    5.4453 H       1  UNL1        0.0240
     38 H           9.2802    2.8048    6.8095 H       1  UNL1        0.0240
     39 H           7.0588    0.2190    3.9016 H       1  UNL1        0.2951
     40 H           6.9606    1.7383    7.8714 H       1  UNL1        0.0276
     41 H           8.2036    0.5795    7.4836 H       1  UNL1        0.0276
     42 H           5.5689    0.0549    7.9159 H       1  UNL1        0.0266
     43 H           6.6832   -1.0306    7.1336 H       1  UNL1        0.0266
     44 H           4.4219   -0.5852    6.0637 H       1  UNL1        0.0274
     45 H           5.8151   -0.7211    5.0558 H       1  UNL1        0.0274
     46 H           3.0418    1.4030    6.1768 H       1  UNL1        0.0238
     47 H           3.5971    2.9553    5.5492 H       1  UNL1        0.0238
     48 H           4.3227    2.2685    7.0137 H       1  UNL1        0.0238
@<TRIPOS>BOND
     1     1     2    2
     2     2     3    1
     3     4     5   ar
     4     5     6   ar
     5     6     7   ar
     6     7     8   ar
     7     8     9   ar
     8     4     9   ar
     9     8    10    1
    10    10    11    1
    11    11    12    1
    12    12    13    1
    13    15    16    2
    14    15    17    1
    15    13    18    1
    16    18    19    1
    17    19    20    1
    18    20    21    1
    19     7    21    1
    20    12    21    1
    21     2     4    1
    22    13    14    1
    23    13    15    1
    24    21    22    1
    25     1    23    1
    26     1    24    1
    27     3    25    1
    28     3    26    1
    29     3    27    1
    30     5    28    1
    31     6    29    1
    32     9    30    1
    33    10    31    1
    34    10    32    1
    35    11    33    1
    36    11    34    1
    37    12    35    1
    38    14    36    1
    39    14    37    1
    40    14    38    1
    41    17    39    1
    42    18    40    1
    43    18    41    1
    44    19    42    1
    45    19    43    1
    46    20    44    1
    47    20    45    1
    48    22    46    1
    49    22    47    1
    50    22    48    1
