@<TRIPOS>MOLECULE
ligand_32
 27 27 0 0 0
SMALL
GASTEIGER

@<TRIPOS>ATOM
      1 C           0.8943    0.0426    0.2125 C.3     1  UNL1       -0.0122
      2 N           2.3380    0.1209   -0.0038 N.3     1  UNL1       -0.2953
      3 C           2.9144   -1.2018   -0.3071 C.3     1  UNL1        0.0276
      4 C           2.6280   -1.7112   -1.7278 C.3     1  UNL1        0.0962
      5 O           3.3307   -2.9352   -1.9612 O.3     1  UNL1       -0.3879
      6 C           3.0740   -0.6681   -2.7548 C.3     1  UNL1        0.1095
      7 O           2.7329   -1.1076   -4.0801 O.3     1  UNL1       -0.3866
      8 C           2.4514    0.7055   -2.4652 C.3     1  UNL1        0.1011
      9 O           2.9555    1.6781   -3.3964 O.3     1  UNL1       -0.3875
     10 C           2.7569    1.1342   -1.0049 C.3     1  UNL1        0.0619
     11 C           2.2176    2.5588   -0.7161 C.3     1  UNL1        0.0622
     12 O           2.8622    3.5502   -1.5142 O.3     1  UNL1       -0.3934
     13 H           0.6607   -0.7190    0.9654 H       1  UNL1        0.0391
     14 H           0.3385   -0.2006   -0.6982 H       1  UNL1        0.0391
     15 H           0.5056    0.9838    0.6140 H       1  UNL1        0.0391
     16 H           2.5819   -1.9467    0.4276 H       1  UNL1        0.0453
     17 H           4.0021   -1.1501   -0.1596 H       1  UNL1        0.0453
     18 H           1.5627   -1.9370   -1.8528 H       1  UNL1        0.0633
     19 H           3.3566   -3.0569   -2.9302 H       1  UNL1        0.2099
     20 H           4.1687   -0.5921   -2.7575 H       1  UNL1        0.0646
     21 H           1.7712   -0.9878   -4.2052 H       1  UNL1        0.2100
     22 H           1.3687    0.6645   -2.6350 H       1  UNL1        0.0636
     23 H           3.5098    1.2066   -4.0485 H       1  UNL1        0.2100
     24 H           3.8510    1.2278   -0.9328 H       1  UNL1        0.0511
     25 H           1.1419    2.6272   -0.9079 H       1  UNL1        0.0573
     26 H           2.3966    2.8264    0.3305 H       1  UNL1        0.0573
     27 H           2.8780    3.2026   -2.4323 H       1  UNL1        0.2095
@<TRIPOS>BOND
     1     1     2    1
     2     2     3    1
     3     3     4    1
     4     4     5    1
     5     4     6    1
     6     6     8    1
     7     8     9    1
     8     8    10    1
     9     2    10    1
    10    11    12    1
    11     6     7    1
    12    10    11    1
    13     1    13    1
    14     1    14    1
    15     1    15    1
    16     3    16    1
    17     3    17    1
    18     4    18    1
    19     5    19    1
    20     6    20    1
    21     7    21    1
    22     8    22    1
    23     9    23    1
    24    10    24    1
    25    11    25    1
    26    11    26    1
    27    12    27    1
