@<TRIPOS>MOLECULE
ligand_31
 60 64 0 0 0
SMALL
GASTEIGER

@<TRIPOS>ATOM
      1 C           2.2378   -1.3677    1.9627 C.3     1  UNL1       -0.0649
      2 C           3.0475   -0.0885    2.1207 C.3     1  UNL1       -0.0494
      3 C           3.2324    0.6505    0.7643 C.3     1  UNL1        0.0005
      4 C           4.7442    1.0437    0.5651 C.3     1  UNL1       -0.0189
      5 C           5.0493    1.1267   -0.9377 C.3     1  UNL1       -0.0484
      6 C           6.4457    1.5250   -1.4032 C.3     1  UNL1       -0.0516
      7 C           7.4849    1.8177   -0.3373 C.3     1  UNL1       -0.0402
      8 C           7.1573    3.0789    0.4493 C.3     1  UNL1       -0.0004
      9 N           6.3757    2.8180    1.6576 N.3     1  UNL1       -0.2924
     10 C           5.0397    2.2547    1.4618 C.3     1  UNL1        0.0173
     11 C           4.1463    3.4516    1.1821 C.3     1  UNL1       -0.0166
     12 C           4.7222    4.5451    2.0871 C.3     1  UNL1       -0.0292
     13 C           6.1627    4.0906    2.4037 C.3     1  UNL1        0.0480
     14 C           6.4636    3.9196    3.9158 C.3     1  UNL1        0.1193
     15 C           5.5261    3.0206    4.7017 C.3     1  UNL1       -0.0015
     16 C           5.3590    3.7006    6.0438 C.3     1  UNL1        0.0570
     17 C           3.8893    3.8319    6.4219 C.3     1  UNL1       -0.0522
     18 C           5.9579    5.0615    5.8322 C.2     1  UNL1        0.3104
     19 O           5.9961    5.9510    6.6670 O.2     1  UNL1       -0.2505
     20 O           6.4207    5.1965    4.5615 O.3     1  UNL1       -0.4596
     21 C           2.6723    3.1057    1.4620 C.3     1  UNL1        0.0134
     22 C           2.2465    1.8509    0.7062 C.3     1  UNL1        0.1100
     23 O           2.0182    2.3314   -0.6219 O.3     1  UNL1       -0.4606
     24 C           1.5720    3.6292   -0.5448 C.2     1  UNL1        0.3106
     25 O           1.1115    4.2541   -1.4817 O.2     1  UNL1       -0.2505
     26 C           1.7388    4.1545    0.8647 C.3     1  UNL1        0.0601
     27 C           0.3936    4.2348    1.5753 C.3     1  UNL1       -0.0519
     28 H           2.1174   -1.8586    2.9337 H       1  UNL1        0.0230
     29 H           2.7502   -2.0675    1.2943 H       1  UNL1        0.0230
     30 H           1.2433   -1.1626    1.5560 H       1  UNL1        0.0230
     31 H           4.0125   -0.3610    2.5620 H       1  UNL1        0.0267
     32 H           2.5468    0.5551    2.8541 H       1  UNL1        0.0267
     33 H           2.9632   -0.0401   -0.0462 H       1  UNL1        0.0340
     34 H           5.3571    0.2102    0.9379 H       1  UNL1        0.0320
     35 H           4.3214    1.7620   -1.4509 H       1  UNL1        0.0269
     36 H           4.8713    0.1193   -1.3457 H       1  UNL1        0.0269
     37 H           6.3515    2.4017   -2.0577 H       1  UNL1        0.0266
     38 H           6.8376    0.7304   -2.0518 H       1  UNL1        0.0266
     39 H           8.4453    1.9762   -0.8453 H       1  UNL1        0.0278
     40 H           7.6355    0.9553    0.3230 H       1  UNL1        0.0278
     41 H           6.6811    3.8285   -0.1962 H       1  UNL1        0.0427
     42 H           8.1177    3.5094    0.7635 H       1  UNL1        0.0427
     43 H           4.7797    1.8799    2.4567 H       1  UNL1        0.0468
     44 H           4.2724    3.7695    0.1376 H       1  UNL1        0.0320
     45 H           4.1197    4.6940    2.9886 H       1  UNL1        0.0285
     46 H           4.7289    5.5004    1.5487 H       1  UNL1        0.0285
     47 H           6.8397    4.8810    2.0490 H       1  UNL1        0.0499
     48 H           7.4944    3.5551    4.0213 H       1  UNL1        0.0750
     49 H           5.9409    2.0109    4.8015 H       1  UNL1        0.0309
     50 H           4.5498    2.9020    4.2269 H       1  UNL1        0.0309
     51 H           5.9266    3.1707    6.8152 H       1  UNL1        0.0412
     52 H           3.3497    4.4555    5.6978 H       1  UNL1        0.0238
     53 H           3.7787    4.3071    7.4016 H       1  UNL1        0.0238
     54 H           3.4005    2.8530    6.4556 H       1  UNL1        0.0238
     55 H           2.5215    2.9830    2.5410 H       1  UNL1        0.0348
     56 H           1.2698    1.4980    1.0645 H       1  UNL1        0.0740
     57 H           2.2097    5.1425    0.8406 H       1  UNL1        0.0415
     58 H          -0.1667    3.2961    1.5122 H       1  UNL1        0.0238
     59 H          -0.2322    5.0131    1.1254 H       1  UNL1        0.0238
     60 H           0.5277    4.4808    2.6342 H       1  UNL1        0.0238
@<TRIPOS>BOND
     1     1     2    1
     2     3     4    1
     3     4     5    1
     4     5     6    1
     5     6     7    1
     6     7     8    1
     7     8     9    1
     8     9    10    1
     9     4    10    1
    10    10    11    1
    11    11    12    1
    12    12    13    1
    13     9    13    1
    14    14    15    1
    15    15    16    1
    16    16    18    1
    17    18    19    2
    18    18    20    1
    19    14    20    1
    20    11    21    1
    21    21    22    1
    22     3    22    1
    23    22    23    1
    24    23    24    1
    25    24    25    2
    26    24    26    1
    27    21    26    1
    28    26    27    1
    29    13    14    1
    30     3     2    1
    31    16    17    1
    32     1    28    1
    33     1    29    1
    34     1    30    1
    35     2    31    1
    36     2    32    1
    37     3    33    1
    38     4    34    1
    39     5    35    1
    40     5    36    1
    41     6    37    1
    42     6    38    1
    43     7    39    1
    44     7    40    1
    45     8    41    1
    46     8    42    1
    47    10    43    1
    48    11    44    1
    49    12    45    1
    50    12    46    1
    51    13    47    1
    52    14    48    1
    53    15    49    1
    54    15    50    1
    55    16    51    1
    56    17    52    1
    57    17    53    1
    58    17    54    1
    59    21    55    1
    60    22    56    1
    61    26    57    1
    62    27    58    1
    63    27    59    1
    64    27    60    1
