@<TRIPOS>MOLECULE
ligand_26
 43 45 0 0 0
SMALL
GASTEIGER

@<TRIPOS>ATOM
      1 C           1.1243   -0.0595   -0.0184 C.3     1  UNL1        0.0790
      2 O           2.5476   -0.0092    0.0345 O.3     1  UNL1       -0.4914
      3 C           3.1459   -0.1453   -1.1919 C.ar    1  UNL1        0.1615
      4 C           2.7349    0.5818   -2.3096 C.ar    1  UNL1       -0.0128
      5 C           3.3742    0.4090   -3.5476 C.ar    1  UNL1       -0.0378
      6 C           4.4544   -0.4909   -3.6634 C.ar    1  UNL1       -0.0231
      7 C           4.8879   -1.1898   -2.5242 C.ar    1  UNL1       -0.0116
      8 C           4.2356   -1.0129   -1.3021 C.ar    1  UNL1        0.1588
      9 O           4.6412   -1.7171   -0.2004 O.3     1  UNL1       -0.5033
     10 C           5.1353   -0.7165   -5.0209 C.3     1  UNL1        0.0397
     11 C           6.4645    0.1081   -5.0635 C.3     1  UNL1       -0.0079
     12 C           7.4026   -0.2367   -6.1993 C.ar    1  UNL1       -0.0453
     13 C           7.3665    0.4886   -7.3985 C.ar    1  UNL1       -0.0551
     14 C           8.1281    0.0888   -8.4985 C.ar    1  UNL1       -0.0199
     15 C           8.9717   -1.0093   -8.3794 C.ar    1  UNL1        0.1169
     16 O           9.6987   -1.4623   -9.4400 O.3     1  UNL1       -0.5068
     17 C           9.0871   -1.6889   -7.1740 C.ar    1  UNL1       -0.0199
     18 C           8.2970   -1.3109   -6.0863 C.ar    1  UNL1       -0.0551
     19 N           4.1244   -0.4914   -6.0753 N.3     1  UNL1       -0.2978
     20 C           4.4413   -0.9774   -7.4020 C.3     1  UNL1       -0.0122
     21 C           3.6027    0.8718   -6.0555 C.3     1  UNL1        0.0032
     22 C           2.8182    1.1193   -4.7608 C.3     1  UNL1       -0.0144
     23 H           0.7565   -0.2183    0.9999 H       1  UNL1        0.0660
     24 H           0.7703   -0.8925   -0.6369 H       1  UNL1        0.0660
     25 H           0.7105    0.8895   -0.3736 H       1  UNL1        0.0660
     26 H           1.9085    1.2820   -2.2361 H       1  UNL1        0.0658
     27 H           5.7191   -1.8838   -2.6066 H       1  UNL1        0.0658
     28 H           5.3831   -2.2899   -0.4465 H       1  UNL1        0.2923
     29 H           5.3936   -1.7844   -5.0556 H       1  UNL1        0.0515
     30 H           7.0211   -0.0556   -4.1288 H       1  UNL1        0.0332
     31 H           6.2640    1.1868   -5.0645 H       1  UNL1        0.0332
     32 H           6.6979    1.3412   -7.4999 H       1  UNL1        0.0621
     33 H           8.0387    0.6333   -9.4325 H       1  UNL1        0.0654
     34 H           9.3944   -1.0023  -10.2394 H       1  UNL1        0.2921
     35 H           9.7738   -2.5265   -7.0879 H       1  UNL1        0.0654
     36 H           8.3794   -1.8674   -5.1560 H       1  UNL1        0.0621
     37 H           5.0037   -1.9164   -7.3722 H       1  UNL1        0.0391
     38 H           4.9846   -0.2521   -8.0090 H       1  UNL1        0.0391
     39 H           3.5089   -1.1941   -7.9360 H       1  UNL1        0.0391
     40 H           2.9247    1.0489   -6.9000 H       1  UNL1        0.0430
     41 H           4.4073    1.6095   -6.1584 H       1  UNL1        0.0430
     42 H           1.7914    0.7591   -4.9079 H       1  UNL1        0.0326
     43 H           2.7698    2.1973   -4.5672 H       1  UNL1        0.0326
@<TRIPOS>BOND
     1     1     2    1
     2     2     3    1
     3     3     4   ar
     4     4     5   ar
     5     5     6   ar
     6     6     7   ar
     7     7     8   ar
     8     3     8   ar
     9     8     9    1
    10     6    10    1
    11    10    11    1
    12    11    12    1
    13    12    13   ar
    14    13    14   ar
    15    14    15   ar
    16    15    16    1
    17    15    17   ar
    18    17    18   ar
    19    12    18   ar
    20    10    19    1
    21    19    20    1
    22    19    21    1
    23    21    22    1
    24     5    22    1
    25     1    23    1
    26     1    24    1
    27     1    25    1
    28     4    26    1
    29     7    27    1
    30     9    28    1
    31    10    29    1
    32    11    30    1
    33    11    31    1
    34    13    32    1
    35    14    33    1
    36    16    34    1
    37    17    35    1
    38    18    36    1
    39    20    37    1
    40    20    38    1
    41    20    39    1
    42    21    40    1
    43    21    41    1
    44    22    42    1
    45    22    43    1
