@<TRIPOS>MOLECULE
ligand_44
 21 20 0 0 0
SMALL
GASTEIGER

@<TRIPOS>ATOM
      1 C           1.0679    0.0483   -0.0370 C.3     1  UNL1       -0.0627
      2 C           2.5964   -0.0237   -0.0843 C.3     1  UNL1       -0.0466
      3 C           3.0328   -1.4245   -0.5161 C.3     1  UNL1       -0.0627
      4 C           3.1412    1.0756   -1.0150 C.3     1  UNL1       -0.0486
      5 C           4.6676    1.1669   -1.0252 C.3     1  UNL1       -0.0295
      6 C           5.1515    2.3298   -1.8833 C.3     1  UNL1        0.0442
      7 O           6.5725    2.3618   -1.8952 O.3     1  UNL1       -0.3950
      8 H           0.6634   -0.7041    0.6485 H       1  UNL1        0.0232
      9 H           0.6311   -0.1249   -1.0265 H       1  UNL1        0.0232
     10 H           0.7348    1.0307    0.3139 H       1  UNL1        0.0232
     11 H           2.9727    0.1556    0.9308 H       1  UNL1        0.0295
     12 H           2.7491   -1.6263   -1.5545 H       1  UNL1        0.0232
     13 H           2.5671   -2.1887    0.1158 H       1  UNL1        0.0232
     14 H           4.1160   -1.5495   -0.4272 H       1  UNL1        0.0232
     15 H           2.7343    2.0435   -0.6943 H       1  UNL1        0.0268
     16 H           2.7801    0.9073   -2.0376 H       1  UNL1        0.0268
     17 H           5.1115    0.2409   -1.4078 H       1  UNL1        0.0287
     18 H           5.0468    1.2858   -0.0028 H       1  UNL1        0.0287
     19 H           4.7861    3.2880   -1.5003 H       1  UNL1        0.0557
     20 H           4.8086    2.2199   -2.9168 H       1  UNL1        0.0557
     21 H           6.8710    2.4688   -0.9762 H       1  UNL1        0.2094
@<TRIPOS>BOND
     1     1     2    1
     2     2     3    1
     3     2     4    1
     4     4     5    1
     5     5     6    1
     6     6     7    1
     7     1     8    1
     8     1     9    1
     9     1    10    1
    10     2    11    1
    11     3    12    1
    12     3    13    1
    13     3    14    1
    14     4    15    1
    15     4    16    1
    16     5    17    1
    17     5    18    1
    18     6    19    1
    19     6    20    1
    20     7    21    1
