@<TRIPOS>MOLECULE
ligand_13
 24 24 0 0 0
SMALL
GASTEIGER

@<TRIPOS>ATOM
      1 C           0.8146   -0.1297    0.0391 C.3     1  UNL1       -0.0585
      2 C           2.3416   -0.0849   -0.1009 C.3     1  UNL1       -0.0179
      3 C           3.0335   -0.4528    1.2162 C.3     1  UNL1       -0.0585
      4 C           2.8711   -0.9002   -1.2974 C.ar    1  UNL1        0.0004
      5 C           3.6902   -0.0997   -2.1993 C.ar    1  UNL1       -0.0547
      6 C           4.0382   -0.3286   -3.4684 C.ar    1  UNL1       -0.0613
      7 C           3.6979   -1.4475   -4.2950 C.ar    1  UNL1       -0.0580
      8 C           3.3259   -2.6654   -3.8971 C.ar    1  UNL1       -0.0112
      9 C           3.0630   -3.1388   -2.5274 C.ar    1  UNL1        0.2203
     10 O           3.0188   -4.3546   -2.3114 O.2     1  UNL1       -0.2840
     11 C           2.6516   -2.2265   -1.4128 C.ar    1  UNL1        0.1670
     12 O           1.9841   -2.9013   -0.3874 O.3     1  UNL1       -0.5030
     13 H           0.4810    0.6107    0.7750 H       1  UNL1        0.0235
     14 H           0.4508   -1.1043    0.3769 H       1  UNL1        0.0235
     15 H           0.3268    0.1069   -0.9127 H       1  UNL1        0.0235
     16 H           2.5713    0.9766   -0.2719 H       1  UNL1        0.0345
     17 H           2.7630   -1.4552    1.5620 H       1  UNL1        0.0235
     18 H           2.7491    0.2520    2.0054 H       1  UNL1        0.0235
     19 H           4.1232   -0.4121    1.1120 H       1  UNL1        0.0235
     20 H           4.0859    0.8204   -1.7657 H       1  UNL1        0.0622
     21 H           4.6599    0.4198   -3.9614 H       1  UNL1        0.0618
     22 H           3.8482   -1.2886   -5.3624 H       1  UNL1        0.0619
     23 H           3.1969   -3.4439   -4.6448 H       1  UNL1        0.0657
     24 H           2.0472   -3.8508   -0.6312 H       1  UNL1        0.2923
@<TRIPOS>BOND
     1     1     2    1
     2     2     3    1
     3     2     4    1
     4     4     5   ar
     5     5     6   ar
     6     6     7   ar
     7     7     8   ar
     8     8     9   ar
     9     9    10    2
    10     9    11   ar
    11     4    11   ar
    12    11    12    1
    13     1    13    1
    14     1    14    1
    15     1    15    1
    16     2    16    1
    17     3    17    1
    18     3    18    1
    19     3    19    1
    20     5    20    1
    21     6    21    1
    22     7    22    1
    23     8    23    1
    24    12    24    1
