@<TRIPOS>MOLECULE
ligand_47
 51 54 0 0 0
SMALL
GASTEIGER

@<TRIPOS>ATOM
      1 C           3.1827   -0.7762    1.3844 C.3     1  UNL1       -0.0580
      2 C           2.7638    0.0379    0.1537 C.3     1  UNL1       -0.0123
      3 C           3.4212    1.3744    0.1403 C.ar    1  UNL1       -0.0034
      4 C           3.3818    2.4420    1.0703 C.ar    1  UNL1       -0.0202
      5 C           4.0937    3.4730    0.4969 C.ar    1  UNL1        0.0923
      6 O           4.5728    3.1072   -0.7249 O.2     1  UNL1       -0.4675
      7 C           4.1524    1.8357   -0.9258 C.ar    1  UNL1        0.1086
      8 C           4.4151    1.1519   -2.2119 C.3     1  UNL1        0.0094
      9 C           3.2783    0.1151   -2.4506 C.3     1  UNL1       -0.0251
     10 C           3.0375   -0.7710   -1.1729 C.3     1  UNL1       -0.0306
     11 C           1.8495   -1.7152   -1.3943 C.3     1  UNL1       -0.0491
     12 C           1.8938   -2.4746   -2.7062 C.3     1  UNL1       -0.0484
     13 C           2.0712   -1.5444   -3.9407 C.3     1  UNL1       -0.0199
     14 C           3.4094   -0.7317   -3.7904 C.3     1  UNL1       -0.0247
     15 C           3.6426    0.2642   -4.9566 C.3     1  UNL1       -0.0590
     16 C           4.6096   -1.7164   -3.8156 C.3     1  UNL1       -0.0470
     17 C           4.3928   -3.0022   -4.6359 C.3     1  UNL1       -0.0515
     18 C           3.2807   -2.9941   -5.6912 C.3     1  UNL1       -0.0372
     19 C           1.9353   -2.3225   -5.3007 C.3     1  UNL1        0.0681
     20 C           0.7729   -3.3491   -5.2200 C.3     1  UNL1       -0.0491
     21 C           1.4695   -1.3770   -6.4396 C.2     1  UNL1        0.3110
     22 O           1.0415   -0.2472   -6.2842 O.2     1  UNL1       -0.2504
     23 O           1.5043   -1.9384   -7.6758 O.3     1  UNL1       -0.4802
     24 H           2.8933   -0.2643    2.3090 H       1  UNL1        0.0236
     25 H           4.2689   -0.9197    1.4144 H       1  UNL1        0.0236
     26 H           2.7101   -1.7628    1.3959 H       1  UNL1        0.0236
     27 H           1.6840    0.2262    0.2316 H       1  UNL1        0.0350
     28 H           2.8759    2.4704    2.0254 H       1  UNL1        0.0652
     29 H           4.3241    4.4828    0.8059 H       1  UNL1        0.1029
     30 H           5.3933    0.6625   -2.1830 H       1  UNL1        0.0346
     31 H           4.4270    1.9060   -3.0054 H       1  UNL1        0.0346
     32 H           2.3596    0.7145   -2.5696 H       1  UNL1        0.0313
     33 H           3.9416   -1.3726   -1.0130 H       1  UNL1        0.0309
     34 H           0.9132   -1.1435   -1.3668 H       1  UNL1        0.0268
     35 H           1.7926   -2.4427   -0.5761 H       1  UNL1        0.0268
     36 H           0.9570   -3.0357   -2.7640 H       1  UNL1        0.0268
     37 H           2.6834   -3.2267   -2.6449 H       1  UNL1        0.0268
     38 H           1.2424   -0.8229   -3.8957 H       1  UNL1        0.0317
     39 H           2.8491    1.0154   -5.0071 H       1  UNL1        0.0235
     40 H           3.7240   -0.2322   -5.9264 H       1  UNL1        0.0235
     41 H           4.5917    0.8009   -4.8422 H       1  UNL1        0.0235
     42 H           4.8943   -2.0220   -2.8036 H       1  UNL1        0.0271
     43 H           5.5037   -1.2084   -4.2017 H       1  UNL1        0.0271
     44 H           4.2099   -3.8360   -3.9473 H       1  UNL1        0.0266
     45 H           5.3382   -3.2659   -5.1287 H       1  UNL1        0.0266
     46 H           3.0975   -4.0358   -5.9890 H       1  UNL1        0.0276
     47 H           3.7014   -2.5153   -6.5838 H       1  UNL1        0.0276
     48 H          -0.0846   -2.9173   -4.6862 H       1  UNL1        0.0240
     49 H           1.0730   -4.2689   -4.7093 H       1  UNL1        0.0240
     50 H           0.3838   -3.6374   -6.2028 H       1  UNL1        0.0240
     51 H           1.7782   -2.8735   -7.6971 H       1  UNL1        0.2951
@<TRIPOS>BOND
     1     2     3    1
     2     3     4   ar
     3     4     5   ar
     4     5     6   ar
     5     6     7   ar
     6     3     7   ar
     7     7     8    1
     8     8     9    1
     9     9    10    1
    10     2    10    1
    11    10    11    1
    12    11    12    1
    13    12    13    1
    14    13    14    1
    15     9    14    1
    16    14    16    1
    17    16    17    1
    18    17    18    1
    19    18    19    1
    20    13    19    1
    21    21    22    2
    22    21    23    1
    23    14    15    1
    24    19    21    1
    25    19    20    1
    26     2     1    1
    27     1    24    1
    28     1    25    1
    29     1    26    1
    30     2    27    1
    31     4    28    1
    32     5    29    1
    33     8    30    1
    34     8    31    1
    35     9    32    1
    36    10    33    1
    37    11    34    1
    38    11    35    1
    39    12    36    1
    40    12    37    1
    41    13    38    1
    42    15    39    1
    43    15    40    1
    44    15    41    1
    45    16    42    1
    46    16    43    1
    47    17    44    1
    48    17    45    1
    49    18    46    1
    50    18    47    1
    51    20    48    1
    52    20    49    1
    53    20    50    1
    54    23    51    1
