@<TRIPOS>MOLECULE
ligand_48
 19 19 0 0 0
SMALL
GASTEIGER

@<TRIPOS>ATOM
      1 C           2.6595    1.0437    0.0156 C.3     1  UNL1       -0.0388
      2 C           1.2891    0.4226    0.0031 C.ar    1  UNL1       -0.0329
      3 C           1.2946   -0.9954    0.0059 C.ar    1  UNL1       -0.0578
      4 C           0.1210   -1.7379    0.0011 C.ar    1  UNL1       -0.0580
      5 C          -1.0952   -1.0804   -0.0120 C.ar    1  UNL1       -0.0193
      6 C          -1.1331    0.3195   -0.0201 C.ar    1  UNL1        0.1311
      7 O          -2.3793    0.8894   -0.0441 O.3     1  UNL1       -0.5059
      8 C           0.0450    1.1167   -0.0104 C.ar    1  UNL1        0.1030
      9 C          -0.1573    2.6291    0.0039 C.2     1  UNL1        0.3406
     10 O          -1.2520    3.1707    0.0588 O.2     1  UNL1       -0.2450
     11 O           0.9252    3.4315   -0.0370 O.3     1  UNL1       -0.4770
     12 H           3.4530    0.2880    0.0568 H       1  UNL1        0.0278
     13 H           2.7919    1.6692    0.9035 H       1  UNL1        0.0278
     14 H           2.8330    1.6069   -0.9068 H       1  UNL1        0.0278
     15 H           2.2379   -1.5422    0.0153 H       1  UNL1        0.0620
     16 H           0.1590   -2.8242    0.0069 H       1  UNL1        0.0619
     17 H          -2.0092   -1.6676   -0.0179 H       1  UNL1        0.0654
     18 H          -3.0739    0.2152   -0.0004 H       1  UNL1        0.2922
     19 H           1.7980    3.0434   -0.1372 H       1  UNL1        0.2954
@<TRIPOS>BOND
     1     1     2    1
     2     2     3   ar
     3     3     4   ar
     4     4     5   ar
     5     5     6   ar
     6     6     7    1
     7     6     8   ar
     8     2     8   ar
     9     8     9    1
    10     9    10    2
    11     9    11    1
    12     1    12    1
    13     1    13    1
    14     1    14    1
    15     3    15    1
    16     4    16    1
    17     5    17    1
    18     7    18    1
    19    11    19    1
