@<TRIPOS>MOLECULE
ligand_49
 43 46 0 0 0
SMALL
GASTEIGER

@<TRIPOS>ATOM
      1 C           0.9585    0.3053   -0.0157 C.3     1  UNL1        0.0790
      2 O           2.3569    0.1562    0.2319 O.3     1  UNL1       -0.4914
      3 C           3.1070    1.2115   -0.2291 C.ar    1  UNL1        0.1624
      4 C           2.8094    2.4818    0.2525 C.ar    1  UNL1       -0.0127
      5 C           3.5938    3.5631   -0.1190 C.ar    1  UNL1       -0.0372
      6 C           4.6989    3.3978   -0.9857 C.ar    1  UNL1       -0.0153
      7 C           5.0252    2.1197   -1.5237 C.ar    1  UNL1        0.0326
      8 C           4.2153    1.0083   -1.0881 C.ar    1  UNL1        0.1695
      9 O           4.5962   -0.2275   -1.5465 O.3     1  UNL1       -0.4908
     10 C           3.8504   -1.3990   -1.2663 C.3     1  UNL1        0.0790
     11 C           6.1652    2.0273   -2.5157 C.ar    1  UNL1       -0.0107
     12 C           6.5454    0.8556   -3.2055 C.ar    1  UNL1       -0.0536
     13 C           7.6203    0.8027   -4.1070 C.ar    1  UNL1       -0.0612
     14 C           8.3516    1.9416   -4.3838 C.ar    1  UNL1       -0.0615
     15 C           8.0094    3.1204   -3.7436 C.ar    1  UNL1       -0.0579
     16 C           6.9395    3.1672   -2.8180 C.ar    1  UNL1       -0.0377
     17 C           6.7674    4.4579   -2.0741 C.3     1  UNL1       -0.0073
     18 C           5.4316    4.6882   -1.3552 C.3     1  UNL1        0.0403
     19 N           5.6787    5.5651   -0.1721 N.3     1  UNL1       -0.2978
     20 C           6.1718    6.8976   -0.5076 C.3     1  UNL1       -0.0122
     21 C           4.5808    5.6357    0.8022 C.3     1  UNL1        0.0032
     22 C           3.2843    4.9447    0.3862 C.3     1  UNL1       -0.0144
     23 H           0.4971   -0.6813    0.0917 H       1  UNL1        0.0660
     24 H           0.7621    0.6606   -1.0334 H       1  UNL1        0.0660
     25 H           0.4969    0.9672    0.7232 H       1  UNL1        0.0660
     26 H           1.9919    2.6290    0.9514 H       1  UNL1        0.0658
     27 H           4.3289   -2.2261   -1.8010 H       1  UNL1        0.0660
     28 H           2.8277   -1.3272   -1.6487 H       1  UNL1        0.0660
     29 H           3.8856   -1.6464   -0.2015 H       1  UNL1        0.0660
     30 H           6.0314   -0.0868   -3.0704 H       1  UNL1        0.0624
     31 H           7.8780   -0.1405   -4.5811 H       1  UNL1        0.0618
     32 H           9.1877    1.9088   -5.0751 H       1  UNL1        0.0618
     33 H           8.5985    4.0146   -3.9401 H       1  UNL1        0.0620
     34 H           6.9186    5.2913   -2.7758 H       1  UNL1        0.0332
     35 H           7.5962    4.4986   -1.3535 H       1  UNL1        0.0332
     36 H           4.7614    5.2131   -2.0535 H       1  UNL1        0.0515
     37 H           7.0917    6.8602   -1.0988 H       1  UNL1        0.0391
     38 H           6.4352    7.4453    0.4054 H       1  UNL1        0.0391
     39 H           5.4266    7.4801   -1.0588 H       1  UNL1        0.0391
     40 H           4.3437    6.6702    1.0822 H       1  UNL1        0.0430
     41 H           4.9486    5.1594    1.7212 H       1  UNL1        0.0430
     42 H           2.7789    5.5118   -0.4050 H       1  UNL1        0.0326
     43 H           2.6070    4.9055    1.2472 H       1  UNL1        0.0326
@<TRIPOS>BOND
     1     1     2    1
     2     2     3    1
     3     3     4   ar
     4     4     5   ar
     5     5     6   ar
     6     6     7   ar
     7     7     8   ar
     8     3     8   ar
     9     8     9    1
    10     9    10    1
    11     7    11    1
    12    11    12   ar
    13    12    13   ar
    14    13    14   ar
    15    14    15   ar
    16    15    16   ar
    17    11    16   ar
    18    16    17    1
    19    17    18    1
    20     6    18    1
    21    18    19    1
    22    19    20    1
    23    19    21    1
    24    21    22    1
    25     5    22    1
    26     1    23    1
    27     1    24    1
    28     1    25    1
    29     4    26    1
    30    10    27    1
    31    10    28    1
    32    10    29    1
    33    12    30    1
    34    13    31    1
    35    14    32    1
    36    15    33    1
    37    17    34    1
    38    17    35    1
    39    18    36    1
    40    20    37    1
    41    20    38    1
    42    20    39    1
    43    21    40    1
    44    21    41    1
    45    22    42    1
    46    22    43    1
