@<TRIPOS>MOLECULE
ligand_4
 90 93 0 0 0
SMALL
GASTEIGER

@<TRIPOS>ATOM
      1 C           0.7367    4.3133    6.4267 C.3     1  UNL1        0.0372
      2 O           1.7588    3.3331    6.3056 O.3     1  UNL1       -0.3752
      3 C           1.5142    2.1065    7.0025 C.3     1  UNL1        0.0834
      4 C           0.8513    1.0475    6.0938 C.3     1  UNL1       -0.0221
      5 C          -0.5603    1.4317    5.6585 C.3     1  UNL1       -0.0454
      6 C          -1.3335    0.2727    4.9571 C.3     1  UNL1       -0.0170
      7 C          -2.6007    0.0330    5.8029 C.3     1  UNL1       -0.0600
      8 C          -1.4340    0.4460    3.3737 C.3     1  UNL1        0.0704
      9 O          -2.3417   -0.4062    2.6348 O.3     1  UNL1       -0.3440
     10 C          -3.6773   -0.6055    3.1977 C.3     1  UNL1        0.1820
     11 C          -4.0639    0.9199    3.0513 C.3     1  UNL1        0.0396
     12 C          -3.1421    2.1194    3.2940 C.3     1  UNL1        0.1129
     13 O          -3.7471    3.2272    2.5881 O.3     1  UNL1       -0.4607
     14 C          -4.3595    4.1319    3.3845 C.2     1  UNL1        0.3110
     15 O          -3.7407    4.8838    4.1253 O.2     1  UNL1       -0.2507
     16 C          -5.8646    4.1288    3.2391 C.3     1  UNL1        0.0844
     17 C          -6.6543    3.1071    4.0810 C.3     1  UNL1        0.1385
     18 C          -6.1054    2.7351    5.5003 C.3     1  UNL1        0.0898
     19 C          -5.4207    3.8285    6.3090 C.3     1  UNL1       -0.0354
     20 O          -7.1872    2.2366    6.2970 O.3     1  UNL1       -0.3884
     21 O          -6.7517    1.9025    3.2423 O.3     1  UNL1       -0.4581
     22 C          -7.7063    0.9677    3.4721 C.2     1  UNL1        0.3126
     23 O          -8.6804    1.1148    4.1893 O.2     1  UNL1       -0.2506
     24 C          -7.4142   -0.3424    2.7580 C.3     1  UNL1        0.0990
     25 C          -6.1512   -1.0696    3.2653 C.3     1  UNL1        0.1832
     26 O          -5.9341   -0.8452    4.6606 O.3     1  UNL1       -0.3637
     27 O          -5.0284   -0.6644    2.4333 O.3     1  UNL1       -0.3161
     28 C          -6.1657   -2.5770    3.0121 C.3     1  UNL1        0.0115
     29 C          -7.2442   -3.3750    3.7393 C.3     1  UNL1       -0.0575
     30 C          -4.7725   -3.0718    3.4151 C.3     1  UNL1       -0.0355
     31 C          -3.6048   -2.2037    2.8321 C.3     1  UNL1        0.0198
     32 C          -3.5224   -2.4515    1.2778 C.3     1  UNL1       -0.0549
     33 C          -2.3222   -2.8792    3.4205 C.3     1  UNL1       -0.0549
     34 C          -1.7405    1.8360    2.8119 C.3     1  UNL1        0.0201
     35 C          -1.6156    1.8604    1.2757 C.3     1  UNL1       -0.0567
     36 C           2.8488    1.5552    7.4813 C.ar    1  UNL1       -0.0155
     37 C           3.9956    1.6307    6.6742 C.ar    1  UNL1       -0.0559
     38 C           5.1929    1.0369    7.0773 C.ar    1  UNL1       -0.0580
     39 C           5.2614    0.3568    8.2920 C.ar    1  UNL1       -0.0202
     40 C           4.1306    0.2867    9.0989 C.ar    1  UNL1        0.1172
     41 O           4.1502   -0.3773   10.2904 O.3     1  UNL1       -0.5068
     42 C           2.9334    0.8790    8.7082 C.ar    1  UNL1       -0.0145
     43 H           1.2113    5.2964    6.4951 H       1  UNL1        0.0524
     44 H           0.1035    4.1723    7.3077 H       1  UNL1        0.0524
     45 H           0.1206    4.3120    5.5241 H       1  UNL1        0.0524
     46 H           0.8925    2.2978    7.8872 H       1  UNL1        0.0646
     47 H           0.8075    0.0931    6.6341 H       1  UNL1        0.0294
     48 H           1.4585    0.8880    5.1943 H       1  UNL1        0.0294
     49 H          -0.4974    2.3060    5.0181 H       1  UNL1        0.0270
     50 H          -1.1068    1.7706    6.5491 H       1  UNL1        0.0270
     51 H          -0.7614   -0.6560    5.0921 H       1  UNL1        0.0323
     52 H          -3.2689    0.8959    5.8242 H       1  UNL1        0.0233
     53 H          -2.3169   -0.1526    6.8478 H       1  UNL1        0.0233
     54 H          -3.1634   -0.8490    5.5034 H       1  UNL1        0.0233
     55 H          -0.4351    0.1774    3.0044 H       1  UNL1        0.0603
     56 H          -4.8352    1.0775    3.7888 H       1  UNL1        0.0353
     57 H          -4.4824    1.1600    2.0531 H       1  UNL1        0.0353
     58 H          -3.1036    2.3640    4.3601 H       1  UNL1        0.0739
     59 H          -6.0929    4.0029    2.1721 H       1  UNL1        0.0415
     60 H          -6.1987    5.1410    3.4969 H       1  UNL1        0.0415
     61 H          -7.6777    3.4902    4.1827 H       1  UNL1        0.0765
     62 H          -5.4167    1.8941    5.4360 H       1  UNL1        0.0627
     63 H          -5.5601    3.6852    7.3857 H       1  UNL1        0.0256
     64 H          -5.7944    4.8235    6.0557 H       1  UNL1        0.0256
     65 H          -4.3397    3.8036    6.1395 H       1  UNL1        0.0256
     66 H          -6.8090    1.8089    7.0848 H       1  UNL1        0.2099
     67 H          -7.3799   -0.1585    1.6795 H       1  UNL1        0.0431
     68 H          -8.3004   -0.9597    2.9460 H       1  UNL1        0.0431
     69 H          -6.7811   -0.6100    5.0821 H       1  UNL1        0.2128
     70 H          -6.2909   -2.7571    1.9352 H       1  UNL1        0.0350
     71 H          -7.2137   -3.2168    4.8211 H       1  UNL1        0.0234
     72 H          -7.1110   -4.4470    3.5524 H       1  UNL1        0.0234
     73 H          -8.2433   -3.1126    3.3799 H       1  UNL1        0.0234
     74 H          -4.6626   -4.1160    3.0916 H       1  UNL1        0.0276
     75 H          -4.6883   -3.0857    4.5105 H       1  UNL1        0.0276
     76 H          -4.3237   -1.9602    0.7157 H       1  UNL1        0.0237
     77 H          -3.5886   -3.5205    1.0480 H       1  UNL1        0.0237
     78 H          -2.5759   -2.0890    0.8614 H       1  UNL1        0.0237
     79 H          -2.2568   -2.7355    4.5020 H       1  UNL1        0.0237
     80 H          -1.3977   -2.5069    2.9661 H       1  UNL1        0.0237
     81 H          -2.3319   -3.9599    3.2300 H       1  UNL1        0.0237
     82 H          -1.0506    2.6042    3.1687 H       1  UNL1        0.0359
     83 H          -2.3669    1.2362    0.7801 H       1  UNL1        0.0234
     84 H          -0.6282    1.4991    0.9671 H       1  UNL1        0.0234
     85 H          -1.7306    2.8789    0.8926 H       1  UNL1        0.0234
     86 H           3.9512    2.1485    5.7176 H       1  UNL1        0.0621
     87 H           6.0673    1.0993    6.4352 H       1  UNL1        0.0619
     88 H           6.1954   -0.1104    8.5861 H       1  UNL1        0.0654
     89 H           5.0397   -0.7446   10.4213 H       1  UNL1        0.2921
     90 H           2.0656    0.7938    9.3571 H       1  UNL1        0.0657
@<TRIPOS>BOND
     1     1     2    1
     2     2     3    1
     3     3     4    1
     4     4     5    1
     5     8     9    1
     6     9    10    1
     7    10    11    1
     8    11    12    1
     9    12    13    1
    10    13    14    1
    11    14    15    2
    12    14    16    1
    13    16    17    1
    14    17    18    1
    15    18    19    1
    16    18    20    1
    17    17    21    1
    18    21    22    1
    19    22    23    2
    20    22    24    1
    21    24    25    1
    22    25    26    1
    23    25    27    1
    24    10    27    1
    25    25    28    1
    26    28    29    1
    27    28    30    1
    28    30    31    1
    29    10    31    1
    30    31    32    1
    31    31    33    1
    32    12    34    1
    33     8    34    1
    34    34    35    1
    35     3    36    1
    36    36    37   ar
    37    37    38   ar
    38    38    39   ar
    39    39    40   ar
    40    40    41    1
    41    40    42   ar
    42    36    42   ar
    43     8     6    1
    44     6     7    1
    45     6     5    1
    46     1    43    1
    47     1    44    1
    48     1    45    1
    49     3    46    1
    50     4    47    1
    51     4    48    1
    52     5    49    1
    53     5    50    1
    54     6    51    1
    55     7    52    1
    56     7    53    1
    57     7    54    1
    58     8    55    1
    59    11    56    1
    60    11    57    1
    61    12    58    1
    62    16    59    1
    63    16    60    1
    64    17    61    1
    65    18    62    1
    66    19    63    1
    67    19    64    1
    68    19    65    1
    69    20    66    1
    70    24    67    1
    71    24    68    1
    72    26    69    1
    73    28    70    1
    74    29    71    1
    75    29    72    1
    76    29    73    1
    77    30    74    1
    78    30    75    1
    79    32    76    1
    80    32    77    1
    81    32    78    1
    82    33    79    1
    83    33    80    1
    84    33    81    1
    85    34    82    1
    86    35    83    1
    87    35    84    1
    88    35    85    1
    89    37    86    1
    90    38    87    1
    91    39    88    1
    92    41    89    1
    93    42    90    1
