@<TRIPOS>MOLECULE
ligand_50
 81 86 0 0 0
SMALL
GASTEIGER

@<TRIPOS>ATOM
      1 C           0.8337   -0.5590    0.4558 C.3     1  UNL1       -0.0598
      2 C           2.3726   -0.6883    0.5022 C.3     1  UNL1       -0.0345
      3 C           2.9282    0.0738   -0.7379 C.3     1  UNL1       -0.0598
      4 C           2.9110    0.0789    1.7601 C.3     1  UNL1       -0.0469
      5 C           4.4464    0.0601    1.8909 C.3     1  UNL1       -0.0377
      6 C           4.9587   -1.2425    1.3280 C.3     1  UNL1        0.0577
      7 C           6.5951   -1.7619    1.7543 C.3     1  UNL1        0.0611
      8 O           6.5732   -3.4357    2.4532 O.3     1  UNL1       -0.3715
      9 C           4.8625   -4.1258    2.3434 C.3     1  UNL1        0.0796
     10 C           4.7317   -4.8539    3.6712 C.3     1  UNL1       -0.0226
     11 C           6.0772   -5.5304    4.0138 C.3     1  UNL1       -0.0466
     12 C           6.7744   -6.3833    2.9074 C.3     1  UNL1       -0.0293
     13 C           8.3725   -6.5746    3.1088 C.3     1  UNL1       -0.0252
     14 C           8.8535   -7.8855    2.3655 C.3     1  UNL1       -0.0590
     15 C           8.7632   -6.8988    4.5879 C.3     1  UNL1       -0.0447
     16 C          10.0823   -6.2779    5.0411 C.3     1  UNL1       -0.0258
     17 C          10.0552   -4.7660    4.9194 C.3     1  UNL1        0.0606
     18 O           9.0893   -4.2323    5.8273 O.3     1  UNL1       -0.3912
     19 C           9.8736   -4.2859    3.4464 C.3     1  UNL1       -0.0056
     20 C          11.3086   -4.0192    2.8849 C.3     1  UNL1       -0.0572
     21 C           9.2187   -2.8943    3.4582 C.3     1  UNL1       -0.0572
     22 C           9.2170   -5.3979    2.4863 C.3     1  UNL1       -0.0278
     23 C           8.6627   -4.8921    1.1278 C.3     1  UNL1       -0.0486
     24 C           7.5359   -5.7161    0.4896 C.3     1  UNL1       -0.0465
     25 C           6.3178   -6.0698    1.3990 C.3     1  UNL1       -0.0203
     26 C           5.8258   -7.4662    0.8566 C.3     1  UNL1       -0.0587
     27 C           5.1133   -4.9903    1.2012 C.3     1  UNL1        0.0096
     28 C           3.7600   -5.6016    0.7892 C.3     1  UNL1       -0.0560
     29 C           5.4140   -3.5830    0.7261 C.3     1  UNL1        0.0150
     30 C           5.1242   -2.2170    2.1882 C.2     1  UNL1        0.1426
     31 O           5.0564   -2.0901    3.4315 O.2     1  UNL1       -0.2967
     32 C           3.7312   -2.5846    1.7284 C.3     1  UNL1        0.0036
     33 C           2.7850   -2.2585    0.4953 C.3     1  UNL1       -0.0414
     34 H           0.4779    0.2617    1.0881 H       1  UNL1        0.0235
     35 H           0.3347   -1.4692    0.7989 H       1  UNL1        0.0235
     36 H           0.4738   -0.3561   -0.5599 H       1  UNL1        0.0235
     37 H           2.7104    1.1489   -0.6548 H       1  UNL1        0.0235
     38 H           2.4797   -0.2741   -1.6733 H       1  UNL1        0.0235
     39 H           4.0139   -0.0199   -0.8417 H       1  UNL1        0.0235
     40 H           2.4623   -0.3502    2.6647 H       1  UNL1        0.0271
     41 H           2.5831    1.1268    1.7469 H       1  UNL1        0.0271
     42 H           4.7333    0.2516    2.9312 H       1  UNL1        0.0276
     43 H           4.8715    0.8789    1.2992 H       1  UNL1        0.0276
     44 H           7.0767   -1.1681    2.5533 H       1  UNL1        0.0570
     45 H           7.2664   -1.8390    0.8885 H       1  UNL1        0.0570
     46 H           3.9247   -5.5929    3.6479 H       1  UNL1        0.0293
     47 H           4.4908   -4.1622    4.4856 H       1  UNL1        0.0293
     48 H           5.9044   -6.1632    4.8946 H       1  UNL1        0.0269
     49 H           6.7670   -4.7555    4.3532 H       1  UNL1        0.0269
     50 H           6.3802   -7.3859    3.1397 H       1  UNL1        0.0312
     51 H           8.2495   -8.7538    2.6470 H       1  UNL1        0.0235
     52 H           9.8957   -8.1170    2.6294 H       1  UNL1        0.0235
     53 H           8.8568   -7.8222    1.2801 H       1  UNL1        0.0235
     54 H           8.8619   -7.9850    4.7295 H       1  UNL1        0.0271
     55 H           7.9752   -6.6277    5.2902 H       1  UNL1        0.0271
     56 H          10.9219   -6.6859    4.4669 H       1  UNL1        0.0290
     57 H          10.2475   -6.5514    6.0903 H       1  UNL1        0.0290
     58 H          11.0050   -4.3781    5.3046 H       1  UNL1        0.0599
     59 H           8.2379   -4.6753    5.6914 H       1  UNL1        0.2098
     60 H          11.8230   -3.2411    3.4627 H       1  UNL1        0.0236
     61 H          11.2722   -3.6801    1.8437 H       1  UNL1        0.0236
     62 H          11.9314   -4.9190    2.9308 H       1  UNL1        0.0236
     63 H           9.7987   -2.1931    4.0725 H       1  UNL1        0.0236
     64 H           8.2225   -2.9131    3.8979 H       1  UNL1        0.0236
     65 H           9.1812   -2.4456    2.4622 H       1  UNL1        0.0236
     66 H          10.1218   -5.9316    2.1517 H       1  UNL1        0.0312
     67 H           9.4909   -4.8702    0.4057 H       1  UNL1        0.0268
     68 H           8.3615   -3.8535    1.1791 H       1  UNL1        0.0268
     69 H           7.9819   -6.6226    0.0702 H       1  UNL1        0.0271
     70 H           7.1854   -5.2208   -0.4242 H       1  UNL1        0.0271
     71 H           6.6097   -8.2287    0.9125 H       1  UNL1        0.0235
     72 H           5.5220   -7.4146   -0.1931 H       1  UNL1        0.0235
     73 H           4.9909   -7.8616    1.4475 H       1  UNL1        0.0235
     74 H           3.4378   -6.3685    1.5063 H       1  UNL1        0.0236
     75 H           3.7978   -6.0511   -0.2057 H       1  UNL1        0.0236
     76 H           2.9403   -4.8825    0.7708 H       1  UNL1        0.0236
     77 H           4.8112   -3.3722   -0.1606 H       1  UNL1        0.0348
     78 H           6.4031   -3.4787    0.2700 H       1  UNL1        0.0348
     79 H           3.0586   -2.4106    2.6079 H       1  UNL1        0.0339
     80 H           1.9050   -2.9053    0.5107 H       1  UNL1        0.0274
     81 H           3.2607   -2.4275   -0.4758 H       1  UNL1        0.0274
@<TRIPOS>BOND
     1     1     2    1
     2     2     3    1
     3     2     4    1
     4     4     5    1
     5     5     6    1
     6     6     7    1
     7     7     8    1
     8     8     9    1
     9     9    10    1
    10    10    11    1
    11    11    12    1
    12    12    13    1
    13    13    14    1
    14    13    15    1
    15    15    16    1
    16    16    17    1
    17    17    18    1
    18    17    19    1
    19    19    20    1
    20    19    21    1
    21    19    22    1
    22    13    22    1
    23    22    23    1
    24    23    24    1
    25    24    25    1
    26    12    25    1
    27    25    26    1
    28    25    27    1
    29     9    27    1
    30    27    28    1
    31    27    29    1
    32    29    30    1
    33     6    30    1
    34    30    31    2
    35     9    32    1
    36     6    32    1
    37    32    33    1
    38     2    33    1
    39     1    34    1
    40     1    35    1
    41     1    36    1
    42     3    37    1
    43     3    38    1
    44     3    39    1
    45     4    40    1
    46     4    41    1
    47     5    42    1
    48     5    43    1
    49     7    44    1
    50     7    45    1
    51    10    46    1
    52    10    47    1
    53    11    48    1
    54    11    49    1
    55    12    50    1
    56    14    51    1
    57    14    52    1
    58    14    53    1
    59    15    54    1
    60    15    55    1
    61    16    56    1
    62    16    57    1
    63    17    58    1
    64    18    59    1
    65    20    60    1
    66    20    61    1
    67    20    62    1
    68    21    63    1
    69    21    64    1
    70    21    65    1
    71    22    66    1
    72    23    67    1
    73    23    68    1
    74    24    69    1
    75    24    70    1
    76    26    71    1
    77    26    72    1
    78    26    73    1
    79    28    74    1
    80    28    75    1
    81    28    76    1
    82    29    77    1
    83    29    78    1
    84    32    79    1
    85    33    80    1
    86    33    81    1
