@<TRIPOS>MOLECULE
ligand_18
 46 49 0 0 0
SMALL
GASTEIGER

@<TRIPOS>ATOM
      1 C           7.3066   -3.2129   -0.8832 C.3     1  UNL1        0.0790
      2 O           6.5182   -2.0447   -0.6550 O.3     1  UNL1       -0.4914
      3 C           7.1530   -0.8283   -0.7504 C.ar    1  UNL1        0.1615
      4 C           6.3745    0.2833   -0.3100 C.ar    1  UNL1       -0.0125
      5 C           6.8902    1.5969   -0.3009 C.ar    1  UNL1       -0.0359
      6 C           6.0919    2.8417    0.2613 C.3     1  UNL1        0.0164
      7 C           5.4378    2.6402    1.6410 C.ar    1  UNL1       -0.0327
      8 C           4.2279    3.2133    2.0599 C.ar    1  UNL1       -0.0125
      9 C           3.8329    3.1318    3.4160 C.ar    1  UNL1        0.1587
     10 O           2.8098    3.9438    3.8217 O.3     1  UNL1       -0.5033
     11 C           4.5339    2.3380    4.3247 C.ar    1  UNL1        0.1615
     12 O           4.1909    1.9821    5.5966 O.3     1  UNL1       -0.4914
     13 C           3.5557    2.9487    6.4177 C.3     1  UNL1        0.0790
     14 C           5.7740    1.8521    3.9267 C.ar    1  UNL1       -0.0128
     15 C           6.2774    2.1984    2.6696 C.ar    1  UNL1       -0.0391
     16 C           7.7425    2.5615    2.5155 C.3     1  UNL1       -0.0140
     17 C           7.8407    3.9377    1.7855 C.3     1  UNL1        0.0671
     18 C           7.1777    5.0328    2.6061 C.2     1  UNL1        0.3109
     19 O           7.3464    5.2333    3.7948 O.2     1  UNL1       -0.2505
     20 O           6.3444    5.7951    1.8353 O.3     1  UNL1       -0.4641
     21 C           6.4761    5.4260    0.4748 C.3     1  UNL1        0.0969
     22 C           7.0729    4.0379    0.4523 C.3     1  UNL1        0.0173
     23 C           8.2052    1.7346   -0.8077 C.ar    1  UNL1       -0.0543
     24 C           8.9748    0.6622   -1.2493 C.ar    1  UNL1       -0.0162
     25 C           8.4552   -0.6169   -1.2227 C.ar    1  UNL1        0.1585
     26 O           9.2619   -1.6246   -1.6725 O.3     1  UNL1       -0.5033
     27 H           6.6960   -4.0901   -0.6510 H       1  UNL1        0.0660
     28 H           8.1789   -3.2492   -0.2193 H       1  UNL1        0.0660
     29 H           7.5940   -3.2985   -1.9375 H       1  UNL1        0.0660
     30 H           5.3670    0.0878    0.0561 H       1  UNL1        0.0658
     31 H           5.3210    3.0778   -0.4843 H       1  UNL1        0.0401
     32 H           3.6377    3.8239    1.3799 H       1  UNL1        0.0658
     33 H           3.2052    4.8375    3.8595 H       1  UNL1        0.2923
     34 H           3.5314    2.5375    7.4344 H       1  UNL1        0.0660
     35 H           2.5191    3.1223    6.1207 H       1  UNL1        0.0660
     36 H           4.1302    3.8794    6.4577 H       1  UNL1        0.0660
     37 H           6.4074    1.3613    4.6607 H       1  UNL1        0.0658
     38 H           8.2740    1.7661    1.9882 H       1  UNL1        0.0321
     39 H           8.1971    2.6490    3.5090 H       1  UNL1        0.0321
     40 H           8.8889    4.2145    1.6375 H       1  UNL1        0.0421
     41 H           7.1718    6.1392    0.0093 H       1  UNL1        0.0701
     42 H           5.5246    5.5048   -0.0589 H       1  UNL1        0.0701
     43 H           7.7388    4.1084   -0.4054 H       1  UNL1        0.0351
     44 H           8.7365    2.6755   -0.8565 H       1  UNL1        0.0622
     45 H           9.9850    0.8587   -1.5964 H       1  UNL1        0.0655
     46 H          10.1219   -1.2586   -1.9366 H       1  UNL1        0.2923
@<TRIPOS>BOND
     1     1     2    1
     2     2     3    1
     3     3     4   ar
     4     4     5   ar
     5     6     7    1
     6     7     8   ar
     7     8     9   ar
     8     9    10    1
     9     9    11   ar
    10    11    12    1
    11    12    13    1
    12    11    14   ar
    13    14    15   ar
    14     7    15   ar
    15    15    16    1
    16    16    17    1
    17    17    18    1
    18    18    19    2
    19    18    20    1
    20    20    21    1
    21    21    22    1
    22     6    22    1
    23    17    22    1
    24     5    23   ar
    25    23    24   ar
    26    24    25   ar
    27     3    25   ar
    28    25    26    1
    29     6     5    1
    30     1    27    1
    31     1    28    1
    32     1    29    1
    33     4    30    1
    34     6    31    1
    35     8    32    1
    36    10    33    1
    37    13    34    1
    38    13    35    1
    39    13    36    1
    40    14    37    1
    41    16    38    1
    42    16    39    1
    43    17    40    1
    44    21    41    1
    45    21    42    1
    46    22    43    1
    47    23    44    1
    48    24    45    1
    49    26    46    1
