@<TRIPOS>MOLECULE
ligand_24
 55 58 0 0 0
SMALL
GASTEIGER

@<TRIPOS>ATOM
      1 C           0.5220    0.1384   -0.2934 C.3     1  UNL1       -0.0586
      2 C           2.0671    0.1476   -0.2967 C.3     1  UNL1       -0.0171
      3 C           2.6228   -0.2619   -1.6737 C.3     1  UNL1       -0.0202
      4 C           2.4170   -1.7592   -1.9904 C.3     1  UNL1        0.0596
      5 O           1.0360   -2.0049   -2.2156 O.3     1  UNL1       -0.3915
      6 C           3.0360   -2.6640   -0.8892 C.3     1  UNL1       -0.0028
      7 C           2.4729   -2.3243    0.5194 C.3     1  UNL1       -0.0314
      8 C           3.2661   -3.0845    1.5928 C.3     1  UNL1       -0.0459
      9 C           3.3540   -4.5747    1.3464 C.3     1  UNL1       -0.0305
     10 C           3.6896   -5.0028   -0.0609 C.2     1  UNL1       -0.0600
     11 C           4.0546   -6.2911   -0.2050 C.2     1  UNL1       -0.0194
     12 C           3.5375   -6.9885   -1.4066 C.2     1  UNL1        0.1561
     13 O           4.0898   -8.0118   -1.8026 O.2     1  UNL1       -0.2927
     14 C           2.2478   -6.4506   -2.0287 C.3     1  UNL1        0.0107
     15 C           1.9043   -4.9830   -1.6522 C.3     1  UNL1       -0.0366
     16 C           3.1698   -4.1917   -1.2560 C.3     1  UNL1       -0.0049
     17 C           4.1475   -4.2227   -2.4850 C.3     1  UNL1       -0.0555
     18 C           2.6787   -0.8115    0.7582 C.3     1  UNL1       -0.0317
     19 C           2.2560   -0.1841    2.0807 C.3     1  UNL1       -0.0488
     20 C           2.4397    1.3209    1.8130 C.3     1  UNL1       -0.0426
     21 C           2.6316    1.4793    0.2762 C.3     1  UNL1        0.0255
     22 C           2.1641    2.8578   -0.1775 C.2     1  UNL1        0.1620
     23 O           2.5123    3.8674    0.4510 O.2     1  UNL1       -0.2947
     24 C           1.3222    3.0275   -1.4284 C.3     1  UNL1        0.1025
     25 O           1.4198    4.3580   -1.9261 O.3     1  UNL1       -0.3875
     26 H           0.1120   -0.8624   -0.1365 H       1  UNL1        0.0235
     27 H           0.1231    0.5050   -1.2450 H       1  UNL1        0.0235
     28 H           0.1019    0.7765    0.4912 H       1  UNL1        0.0235
     29 H           3.6997   -0.0486   -1.7112 H       1  UNL1        0.0296
     30 H           2.1588    0.3318   -2.4665 H       1  UNL1        0.0296
     31 H           2.9147   -1.9378   -2.9474 H       1  UNL1        0.0596
     32 H           0.7014   -2.6366   -1.5598 H       1  UNL1        0.2098
     33 H           4.0844   -2.3239   -0.8285 H       1  UNL1        0.0337
     34 H           1.4132   -2.5952    0.5848 H       1  UNL1        0.0307
     35 H           2.7999   -2.9235    2.5733 H       1  UNL1        0.0271
     36 H           4.2855   -2.6856    1.6651 H       1  UNL1        0.0271
     37 H           2.3689   -5.0038    1.5823 H       1  UNL1        0.0310
     38 H           4.0592   -5.0106    2.0650 H       1  UNL1        0.0310
     39 H           4.4025   -6.9312    0.5965 H       1  UNL1        0.0652
     40 H           1.4294   -7.1114   -1.7217 H       1  UNL1        0.0345
     41 H           2.3566   -6.5246   -3.1163 H       1  UNL1        0.0345
     42 H           1.1852   -4.9888   -0.8208 H       1  UNL1        0.0278
     43 H           1.3843   -4.5298   -2.5021 H       1  UNL1        0.0278
     44 H           4.5841   -5.1992   -2.7030 H       1  UNL1        0.0238
     45 H           4.9953   -3.5428   -2.3465 H       1  UNL1        0.0238
     46 H           3.6230   -3.9178   -3.3992 H       1  UNL1        0.0238
     47 H           3.7744   -0.6743    0.7176 H       1  UNL1        0.0309
     48 H           2.8699   -0.5132    2.9244 H       1  UNL1        0.0268
     49 H           1.2107   -0.4107    2.3191 H       1  UNL1        0.0268
     50 H           3.3261    1.6965    2.3382 H       1  UNL1        0.0272
     51 H           1.5783    1.8847    2.1886 H       1  UNL1        0.0272
     52 H           3.7149    1.4947    0.0758 H       1  UNL1        0.0383
     53 H           0.2765    2.8351   -1.1804 H       1  UNL1        0.0636
     54 H           1.6615    2.3650   -2.2206 H       1  UNL1        0.0636
     55 H           1.6744    4.9152   -1.1619 H       1  UNL1        0.2100
@<TRIPOS>BOND
     1     1     2    1
     2     2     3    1
     3     3     4    1
     4     4     6    1
     5     6     7    1
     6     7     8    1
     7     8     9    1
     8     9    10    1
     9    10    11    2
    10    11    12    1
    11    12    13    2
    12    12    14    1
    13    14    15    1
    14    15    16    1
    15    10    16    1
    16     6    16    1
    17    16    17    1
    18     7    18    1
    19     2    18    1
    20    18    19    1
    21    19    20    1
    22    20    21    1
    23     2    21    1
    24    22    23    2
    25    22    24    1
    26    24    25    1
    27     4     5    1
    28    21    22    1
    29     1    26    1
    30     1    27    1
    31     1    28    1
    32     3    29    1
    33     3    30    1
    34     4    31    1
    35     5    32    1
    36     6    33    1
    37     7    34    1
    38     8    35    1
    39     8    36    1
    40     9    37    1
    41     9    38    1
    42    11    39    1
    43    14    40    1
    44    14    41    1
    45    15    42    1
    46    15    43    1
    47    17    44    1
    48    17    45    1
    49    17    46    1
    50    18    47    1
    51    19    48    1
    52    19    49    1
    53    20    50    1
    54    20    51    1
    55    21    52    1
    56    24    53    1
    57    24    54    1
    58    25    55    1
