@<TRIPOS>MOLECULE
ligand_45
 35 37 0 0 0
SMALL
GASTEIGER

@<TRIPOS>ATOM
      1 O5*         0.6784   -0.3129    0.3611 O.3     1  UNL1       -0.3924
      2 C5*         1.9894    0.1052    0.0125 C.3     1  UNL1        0.0729
      3 C4*         2.8585   -1.0965   -0.3687 C.3     1  UNL1        0.1100
      4 O4*         4.1539   -0.6120   -0.7825 O.3     1  UNL1       -0.3484
      5 C1*         5.1374   -1.0284    0.1951 C.3     1  UNL1        0.1408
      6 N           6.0529    0.0658    0.4469 N.ar    1  UNL1       -0.2882
      7 C           5.6986    1.3595    0.7095 C.ar    1  UNL1        0.0999
      8 N           6.7473    2.1307    0.8685 N.ar    1  UNL1       -0.2357
      9 C           7.8289    1.3017    0.6666 C.ar    1  UNL1        0.1152
     10 C           7.4298   -0.0085    0.4444 C.ar    1  UNL1        0.1621
     11 N           8.0630   -1.1827    0.2072 N.2     1  UNL1       -0.2209
     12 C           9.3442   -1.2687    0.3148 C.2     1  UNL1        0.0837
     13 N          10.3397   -0.4067    0.6929 N.pl3   1  UNL1       -0.3321
     14 C          10.1618    0.8462    1.4195 C.3     1  UNL1        0.0416
     15 C           9.2227    1.8256    0.6999 C.3     1  UNL1        0.1158
     16 O           9.7316    2.0833   -0.6191 O.3     1  UNL1       -0.3840
     17 C2*         4.3703   -1.5040    1.4200 C.3     1  UNL1        0.0213
     18 C3*         3.1142   -2.0622    0.7910 C.3     1  UNL1        0.0876
     19 O3*         3.4038   -3.3856    0.3239 O.3     1  UNL1       -0.3890
     20 H5*         0.1408    0.4912    0.4740 H       1  UNL1        0.2095
     21 H5*1        2.4180    0.6586    0.8540 H       1  UNL1        0.0584
     22 H5*2        1.9270    0.7995   -0.8330 H       1  UNL1        0.0584
     23 H4*         2.4036   -1.6198   -1.2174 H       1  UNL1        0.0646
     24 H1*         5.6916   -1.8564   -0.2603 H       1  UNL1        0.0840
     25 H           4.6694    1.6856    0.7653 H       1  UNL1        0.1030
     26 H           9.7793   -2.2469    0.0405 H       1  UNL1        0.0998
     27 H          11.2985   -0.7292    0.6159 H       1  UNL1        0.1470
     28 H          11.1502    1.3115    1.5119 H       1  UNL1        0.0491
     29 H           9.8043    0.6311    2.4333 H       1  UNL1        0.0491
     30 H           9.2347    2.7808    1.2368 H       1  UNL1        0.0676
     31 H           9.5958    1.2483   -1.1036 H       1  UNL1        0.2104
     32 H2*1        4.1175   -0.6689    2.0837 H       1  UNL1        0.0335
     33 H2*2        4.9444   -2.2379    1.9943 H       1  UNL1        0.0335
     34 H3*         2.2815   -2.1416    1.4946 H       1  UNL1        0.0621
     35 H3*         3.6966   -3.3413   -0.6040 H       1  UNL1        0.2099
@<TRIPOS>BOND
     1     1     2    1
     2     2     3    1
     3     3     4    1
     4     4     5    1
     5     5     6    1
     6     6     7   ar
     7     7     8   ar
     8     8     9   ar
     9     9    10   ar
    10     6    10   ar
    11    10    11    1
    12    11    12    2
    13    12    13    1
    14    13    14    1
    15    14    15    1
    16     9    15    1
    17    15    16    1
    18     5    17    1
    19    17    18    1
    20     3    18    1
    21    18    19    1
    22     1    20    1
    23     2    21    1
    24     2    22    1
    25     3    23    1
    26     5    24    1
    27     7    25    1
    28    12    26    1
    29    13    27    1
    30    14    28    1
    31    14    29    1
    32    15    30    1
    33    16    31    1
    34    17    32    1
    35    17    33    1
    36    18    34    1
    37    19    35    1
