@<TRIPOS>MOLECULE
ligand_9
 56 59 0 0 0
SMALL
GASTEIGER

@<TRIPOS>ATOM
      1 C           7.0440   -3.6003    2.3942 C.3     1  UNL1        0.0790
      2 O           6.8926   -2.1960    2.2636 O.3     1  UNL1       -0.4913
      3 C           7.2929   -1.5922    1.0997 C.ar    1  UNL1        0.1653
      4 C           6.9797   -0.2226    1.0805 C.ar    1  UNL1       -0.0104
      5 C           7.2331    0.5852   -0.0391 C.ar    1  UNL1       -0.0114
      6 C           6.7549    2.0222   -0.0232 C.3     1  UNL1        0.0892
      7 O           7.3080    2.7409    1.0947 O.3     1  UNL1       -0.3712
      8 C           7.1014    4.1283    0.7962 C.3     1  UNL1        0.0544
      9 C           7.4331    4.2603   -0.6789 C.3     1  UNL1        0.0205
     10 C           7.0725    2.8992   -1.2372 C.3     1  UNL1        0.0205
     11 C           5.8645    3.1293   -2.1263 C.3     1  UNL1        0.0544
     12 O           5.4528    4.4891   -1.9438 O.3     1  UNL1       -0.3712
     13 C           6.5630    5.2498   -1.4353 C.3     1  UNL1        0.0892
     14 C           7.2393    5.9606   -2.5999 C.ar    1  UNL1       -0.0114
     15 C           7.9806    5.2657   -3.5742 C.ar    1  UNL1       -0.0104
     16 C           8.5276    5.9299   -4.6709 C.ar    1  UNL1        0.1653
     17 O           9.2335    5.3432   -5.6921 O.3     1  UNL1       -0.4913
     18 C           9.2155    3.9203   -5.7440 C.3     1  UNL1        0.0790
     19 C           8.3677    7.3161   -4.7735 C.ar    1  UNL1        0.2010
     20 O           8.9201    7.9651   -5.8522 O.3     1  UNL1       -0.5009
     21 C           7.6564    8.0439   -3.8142 C.ar    1  UNL1        0.1653
     22 O           7.5648    9.3942   -4.0221 O.3     1  UNL1       -0.4913
     23 C           6.9649   10.1753   -2.9999 C.3     1  UNL1        0.0790
     24 C           7.0832    7.3540   -2.7402 C.ar    1  UNL1       -0.0104
     25 C           7.8377   -0.0244   -1.1430 C.ar    1  UNL1       -0.0104
     26 C           8.1878   -1.3830   -1.1477 C.ar    1  UNL1        0.1653
     27 O           8.7271   -1.7775   -2.3432 O.3     1  UNL1       -0.4913
     28 C           9.5917   -2.9037   -2.3784 C.3     1  UNL1        0.0790
     29 C           7.8952   -2.1725   -0.0257 C.ar    1  UNL1        0.2010
     30 O           8.1309   -3.5189   -0.0562 O.3     1  UNL1       -0.5009
     31 H           6.6072   -3.8902    3.3553 H       1  UNL1        0.0660
     32 H           8.1008   -3.8824    2.4172 H       1  UNL1        0.0660
     33 H           6.4887   -4.1388    1.6194 H       1  UNL1        0.0660
     34 H           6.4942    0.2142    1.9530 H       1  UNL1        0.0659
     35 H           5.6683    1.9883    0.1401 H       1  UNL1        0.0650
     36 H           7.7539    4.7393    1.4268 H       1  UNL1        0.0564
     37 H           6.0599    4.3832    1.0261 H       1  UNL1        0.0564
     38 H           8.5053    4.4687   -0.7764 H       1  UNL1        0.0356
     39 H           7.9154    2.5302   -1.8251 H       1  UNL1        0.0356
     40 H           5.0197    2.4658   -1.9200 H       1  UNL1        0.0564
     41 H           6.1259    2.9904   -3.1811 H       1  UNL1        0.0564
     42 H           6.1569    6.0043   -0.7514 H       1  UNL1        0.0650
     43 H           8.1147    4.1971   -3.4735 H       1  UNL1        0.0659
     44 H           9.7094    3.6124   -6.6706 H       1  UNL1        0.0660
     45 H           8.1908    3.5336   -5.7701 H       1  UNL1        0.0660
     46 H           9.7780    3.4921   -4.9079 H       1  UNL1        0.0660
     47 H           9.3420    7.2640   -6.3829 H       1  UNL1        0.2924
     48 H           7.0437   11.2268   -3.2925 H       1  UNL1        0.0660
     49 H           7.4914   10.0554   -2.0471 H       1  UNL1        0.0660
     50 H           5.9013    9.9374   -2.8972 H       1  UNL1        0.0660
     51 H           6.4933    7.8841   -1.9987 H       1  UNL1        0.0659
     52 H           8.0498    0.5328   -2.0507 H       1  UNL1        0.0659
     53 H          10.2628   -2.7785   -3.2346 H       1  UNL1        0.0660
     54 H           9.0066   -3.8090   -2.5644 H       1  UNL1        0.0660
     55 H          10.2105   -3.0009   -1.4819 H       1  UNL1        0.0660
     56 H           7.7796   -3.8286   -0.9069 H       1  UNL1        0.2924
@<TRIPOS>BOND
     1     1     2    1
     2     2     3    1
     3     3     4   ar
     4     4     5   ar
     5     6     7    1
     6     7     8    1
     7     8     9    1
     8     9    10    1
     9     6    10    1
    10    10    11    1
    11    11    12    1
    12    12    13    1
    13     9    13    1
    14    13    14    1
    15    14    15   ar
    16    15    16   ar
    17    16    17    1
    18    17    18    1
    19    16    19   ar
    20    19    20    1
    21    19    21   ar
    22    21    22    1
    23    22    23    1
    24    21    24   ar
    25    14    24   ar
    26     5    25   ar
    27    25    26   ar
    28    26    27    1
    29    27    28    1
    30    26    29   ar
    31     3    29   ar
    32    29    30    1
    33     6     5    1
    34     1    31    1
    35     1    32    1
    36     1    33    1
    37     4    34    1
    38     6    35    1
    39     8    36    1
    40     8    37    1
    41     9    38    1
    42    10    39    1
    43    11    40    1
    44    11    41    1
    45    13    42    1
    46    15    43    1
    47    18    44    1
    48    18    45    1
    49    18    46    1
    50    20    47    1
    51    23    48    1
    52    23    49    1
    53    23    50    1
    54    24    51    1
    55    25    52    1
    56    28    53    1
    57    28    54    1
    58    28    55    1
    59    30    56    1
