@<TRIPOS>MOLECULE
ligand_51
 78 85 0 0 0
SMALL
GASTEIGER

@<TRIPOS>ATOM
      1 C           0.8139   -0.2982   -0.7482 C.3     1  UNL1       -0.0623
      2 C           2.3248   -0.0180   -0.7721 C.3     1  UNL1       -0.0416
      3 C           3.0668   -1.2884   -0.2656 C.3     1  UNL1       -0.0469
      4 C           4.3472   -1.0622    0.5595 C.3     1  UNL1       -0.0306
      5 C           5.6031   -0.8704   -0.2917 C.3     1  UNL1       -0.0069
      6 C           5.7017    0.4581   -0.9873 C.ar    1  UNL1        0.0465
      7 N           6.5267    0.5036   -2.0664 N.ar    1  UNL1       -0.2589
      8 C           6.6908    1.6966   -2.7035 C.ar    1  UNL1        0.0370
      9 C           6.1076    2.9014   -2.3218 C.ar    1  UNL1        0.0188
     10 C           6.4283    4.1590   -3.0467 C.ar    1  UNL1        0.0727
     11 C           7.5542    4.9227   -2.7356 C.ar    1  UNL1       -0.0353
     12 C           7.9125    6.0141   -3.5563 C.ar    1  UNL1       -0.0531
     13 C           7.1520    6.3748   -4.6768 C.ar    1  UNL1       -0.0058
     14 C           6.0013    5.5887   -4.8795 C.ar    1  UNL1        0.0472
     15 N           5.6511    4.5027   -4.0988 N.ar    1  UNL1       -0.2512
     16 C           5.0029    5.9498   -5.9518 C.3     1  UNL1       -0.0069
     17 C           5.5452    6.8866   -7.0437 C.3     1  UNL1       -0.0306
     18 C           6.4206    6.0852   -8.0475 C.3     1  UNL1       -0.0469
     19 C           7.8621    6.5939   -8.1879 C.3     1  UNL1       -0.0416
     20 C           7.9456    7.7679   -9.1927 C.3     1  UNL1       -0.0623
     21 C           8.5090    6.8779   -6.7997 C.3     1  UNL1       -0.0276
     22 C           7.5651    7.4856   -5.6890 C.3     1  UNL1        0.0495
     23 N           8.3618    8.5768   -5.0919 N.3     1  UNL1       -0.3065
     24 C           7.6542    9.6797   -4.4605 C.3     1  UNL1       -0.0033
     25 C           6.5284   10.2280   -5.3287 C.3     1  UNL1       -0.0401
     26 C           5.5470    9.1017   -5.6577 C.3     1  UNL1       -0.0468
     27 C           6.3373    8.0549   -6.4395 C.3     1  UNL1       -0.0153
     28 C           5.2493    2.8070   -1.2070 C.ar    1  UNL1       -0.0445
     29 C           5.0191    1.5763   -0.5114 C.ar    1  UNL1       -0.0052
     30 C           3.9907    1.4345    0.6381 C.3     1  UNL1        0.0495
     31 C           2.5920    1.3330   -0.0308 C.3     1  UNL1       -0.0276
     32 N           4.1018    2.6236    1.4930 N.3     1  UNL1       -0.3065
     33 C           3.8338    2.5435    2.9208 C.3     1  UNL1       -0.0033
     34 C           4.0990    1.2124    3.6280 C.3     1  UNL1       -0.0401
     35 C           4.8773    0.2321    2.7503 C.3     1  UNL1       -0.0468
     36 C           4.0646    0.1210    1.4703 C.3     1  UNL1       -0.0153
     37 H           0.5708   -1.2123   -1.2992 H       1  UNL1        0.0232
     38 H           0.2512    0.5305   -1.1872 H       1  UNL1        0.0232
     39 H           0.4623   -0.4313    0.2836 H       1  UNL1        0.0232
     40 H           2.6229    0.1238   -1.8187 H       1  UNL1        0.0299
     41 H           3.2700   -1.9576   -1.1116 H       1  UNL1        0.0271
     42 H           2.3820   -1.8582    0.3808 H       1  UNL1        0.0271
     43 H           4.5019   -1.9680    1.1628 H       1  UNL1        0.0308
     44 H           5.6699   -1.6777   -1.0323 H       1  UNL1        0.0331
     45 H           6.4857   -0.9657    0.3543 H       1  UNL1        0.0331
     46 H           7.3475    1.6478   -3.5689 H       1  UNL1        0.0836
     47 H           8.1726    4.6597   -1.8851 H       1  UNL1        0.0639
     48 H           8.8170    6.5589   -3.2926 H       1  UNL1        0.0622
     49 H           4.1532    6.4313   -5.4531 H       1  UNL1        0.0331
     50 H           4.6172    5.0289   -6.4089 H       1  UNL1        0.0331
     51 H           4.6859    7.2833   -7.5999 H       1  UNL1        0.0308
     52 H           5.9306    6.0967   -9.0303 H       1  UNL1        0.0271
     53 H           6.4648    5.0275   -7.7606 H       1  UNL1        0.0271
     54 H           8.4610    5.7972   -8.6492 H       1  UNL1        0.0299
     55 H           7.0713    8.4269   -9.1771 H       1  UNL1        0.0232
     56 H           7.9873    7.3783  -10.2166 H       1  UNL1        0.0232
     57 H           8.8379    8.3823   -9.0378 H       1  UNL1        0.0232
     58 H           9.3659    7.5440   -6.9801 H       1  UNL1        0.0289
     59 H           8.9579    5.9462   -6.4311 H       1  UNL1        0.0289
     60 H           9.1105    8.2257   -4.5041 H       1  UNL1        0.1228
     61 H           8.3762   10.4858   -4.2814 H       1  UNL1        0.0424
     62 H           7.2612    9.3784   -3.4847 H       1  UNL1        0.0424
     63 H           6.9512   10.6435   -6.2571 H       1  UNL1        0.0278
     64 H           6.0200   11.0574   -4.8276 H       1  UNL1        0.0278
     65 H           4.7371    9.5016   -6.2792 H       1  UNL1        0.0269
     66 H           5.1041    8.6979   -4.7431 H       1  UNL1        0.0269
     67 H           6.7063    8.6555   -7.2726 H       1  UNL1        0.0325
     68 H           4.7444    3.7111   -0.8735 H       1  UNL1        0.0628
     69 H           2.4298    2.1564   -0.7392 H       1  UNL1        0.0289
     70 H           1.8262    1.4687    0.7470 H       1  UNL1        0.0289
     71 H           3.6297    3.4233    1.0797 H       1  UNL1        0.1228
     72 H           2.7973    2.8473    3.1108 H       1  UNL1        0.0424
     73 H           4.4579    3.3041    3.4052 H       1  UNL1        0.0424
     74 H           3.1243    0.7657    3.8808 H       1  UNL1        0.0278
     75 H           4.6069    1.3688    4.5851 H       1  UNL1        0.0278
     76 H           4.9235   -0.7373    3.2624 H       1  UNL1        0.0269
     77 H           5.9004    0.5737    2.5741 H       1  UNL1        0.0269
     78 H           3.0518   -0.0811    1.8637 H       1  UNL1        0.0325
@<TRIPOS>BOND
     1     1     2    1
     2     2     3    1
     3     3     4    1
     4     4     5    1
     5     5     6    1
     6     6     7   ar
     7     7     8   ar
     8     8     9   ar
     9     9    10    1
    10    10    11   ar
    11    11    12   ar
    12    12    13   ar
    13    13    14   ar
    14    14    15   ar
    15    10    15   ar
    16    14    16    1
    17    16    17    1
    18    17    18    1
    19    18    19    1
    20    19    21    1
    21    21    22    1
    22    13    22    1
    23    22    23    1
    24    23    24    1
    25    24    25    1
    26    25    26    1
    27    26    27    1
    28    17    27    1
    29    22    27    1
    30     9    28   ar
    31    28    29   ar
    32     6    29   ar
    33    29    30    1
    34    30    31    1
    35     2    31    1
    36    30    32    1
    37    32    33    1
    38    33    34    1
    39    34    35    1
    40    35    36    1
    41     4    36    1
    42    30    36    1
    43    19    20    1
    44     1    37    1
    45     1    38    1
    46     1    39    1
    47     2    40    1
    48     3    41    1
    49     3    42    1
    50     4    43    1
    51     5    44    1
    52     5    45    1
    53     8    46    1
    54    11    47    1
    55    12    48    1
    56    16    49    1
    57    16    50    1
    58    17    51    1
    59    18    52    1
    60    18    53    1
    61    19    54    1
    62    20    55    1
    63    20    56    1
    64    20    57    1
    65    21    58    1
    66    21    59    1
    67    23    60    1
    68    24    61    1
    69    24    62    1
    70    25    63    1
    71    25    64    1
    72    26    65    1
    73    26    66    1
    74    27    67    1
    75    28    68    1
    76    31    69    1
    77    31    70    1
    78    32    71    1
    79    33    72    1
    80    33    73    1
    81    34    74    1
    82    34    75    1
    83    35    76    1
    84    35    77    1
    85    36    78    1
