@<TRIPOS>MOLECULE
ligand_16
 62 66 0 0 0
SMALL
GASTEIGER

@<TRIPOS>ATOM
      1 C           0.3922    0.3299   -0.3707 C.3     1  UNL1       -0.0108
      2 C           1.6781    0.3097    0.4380 C.3     1  UNL1        0.1663
      3 C           1.3141    0.2862    1.9383 C.3     1  UNL1       -0.0108
      4 O           2.4282   -0.8628    0.1428 O.3     1  UNL1       -0.3426
      5 C           3.7442   -0.5063    0.5438 C.3     1  UNL1        0.0987
      6 C           4.7931   -1.0772   -0.4029 C.3     1  UNL1       -0.0195
      7 C           5.8499   -0.0110   -0.2152 C.3     1  UNL1       -0.0240
      8 C           7.2618   -0.2156   -0.7629 C.3     1  UNL1        0.0030
      9 C           7.7792   -1.5847   -0.2432 C.3     1  UNL1       -0.0117
     10 C           9.2890   -1.7704   -0.2463 C.3     1  UNL1        0.1237
     11 F           9.5672   -2.8952    0.4736 F       1  UNL1       -0.2407
     12 C           9.9153   -0.5534    0.3666 C.2     1  UNL1       -0.0198
     13 C          10.4308   -0.5904    1.6110 C.2     1  UNL1       -0.0121
     14 C          10.8468    0.6487    2.3053 C.2     1  UNL1        0.1788
     15 O          11.0759    0.6725    3.5023 O.2     1  UNL1       -0.2879
     16 C          10.9984    1.8534    1.4643 C.2     1  UNL1       -0.0179
     17 C          10.4854    1.8843    0.2271 C.2     1  UNL1       -0.0674
     18 C           9.6643    0.7592   -0.3984 C.3     1  UNL1        0.0469
     19 C          10.1023    0.6456   -1.8709 C.3     1  UNL1       -0.0492
     20 C           8.1177    0.9952   -0.2450 C.3     1  UNL1        0.1528
     21 F           7.9149    1.0595    1.1293 F       1  UNL1       -0.2377
     22 C           7.4814    2.3035   -0.7900 C.3     1  UNL1        0.0910
     23 O           8.2282    3.4693   -0.4465 O.3     1  UNL1       -0.3886
     24 C           6.0557    2.4888   -0.1949 C.3     1  UNL1       -0.0150
     25 C           5.0853    1.3135   -0.5007 C.3     1  UNL1        0.0123
     26 C           4.5915    1.5226   -1.9470 C.3     1  UNL1       -0.0561
     27 C           3.8484    1.0496    0.4691 C.3     1  UNL1        0.1640
     28 C           4.0763    1.7592    1.8109 C.2     1  UNL1        0.1931
     29 O           4.5964    1.2096    2.7841 O.2     1  UNL1       -0.2918
     30 C           3.6695    3.2345    1.8719 C.3     1  UNL1        0.1053
     31 O           4.5319    3.9762    2.7194 O.3     1  UNL1       -0.3874
     32 O           2.5197    1.4284    0.0697 O.3     1  UNL1       -0.3320
     33 H          -0.2009   -0.5735   -0.1853 H       1  UNL1        0.0281
     34 H           0.6012    0.3718   -1.4432 H       1  UNL1        0.0281
     35 H          -0.2142    1.2056   -0.1148 H       1  UNL1        0.0281
     36 H           0.6339   -0.5459    2.1565 H       1  UNL1        0.0281
     37 H           0.8572    1.2254    2.2593 H       1  UNL1        0.0281
     38 H           2.1808    0.1120    2.5838 H       1  UNL1        0.0281
     39 H           3.9276   -0.8936    1.5527 H       1  UNL1        0.0631
     40 H           4.4397   -1.1645   -1.4359 H       1  UNL1        0.0294
     41 H           5.0998   -2.0771   -0.0864 H       1  UNL1        0.0294
     42 H           6.0332   -0.0110    0.8736 H       1  UNL1        0.0312
     43 H           7.2544   -0.2302   -1.8593 H       1  UNL1        0.0336
     44 H           7.3217   -2.3985   -0.8194 H       1  UNL1        0.0300
     45 H           7.4357   -1.7414    0.7901 H       1  UNL1        0.0300
     46 H           9.6690   -1.9520   -1.2542 H       1  UNL1        0.0699
     47 H          10.4685   -1.4955    2.2080 H       1  UNL1        0.0656
     48 H          11.5166    2.6934    1.9092 H       1  UNL1        0.0653
     49 H          10.6216    2.7933   -0.3570 H       1  UNL1        0.0583
     50 H          11.1474    0.3194   -1.9481 H       1  UNL1        0.0242
     51 H          10.0160    1.6062   -2.3912 H       1  UNL1        0.0242
     52 H           9.5001   -0.0707   -2.4387 H       1  UNL1        0.0242
     53 H           7.4459    2.2733   -1.8834 H       1  UNL1        0.0626
     54 H           8.2698    3.5094    0.5293 H       1  UNL1        0.2099
     55 H           5.6410    3.4439   -0.5421 H       1  UNL1        0.0297
     56 H           6.1863    2.6192    0.8849 H       1  UNL1        0.0297
     57 H           5.4201    1.6201   -2.6552 H       1  UNL1        0.0236
     58 H           4.0065    2.4504   -2.0085 H       1  UNL1        0.0236
     59 H           3.9425    0.7218   -2.3075 H       1  UNL1        0.0236
     60 H           2.6456    3.3073    2.2467 H       1  UNL1        0.0637
     61 H           3.7120    3.6843    0.8762 H       1  UNL1        0.0637
     62 H           4.7135    3.4074    3.4931 H       1  UNL1        0.2100
@<TRIPOS>BOND
     1     1     2    1
     2     2     3    1
     3     2     4    1
     4     4     5    1
     5     5     6    1
     6     6     7    1
     7     7     8    1
     8     8     9    1
     9     9    10    1
    10    10    11    1
    11    10    12    1
    12    12    13    2
    13    13    14    1
    14    14    15    2
    15    14    16    1
    16    16    17    2
    17    17    18    1
    18    12    18    1
    19    18    19    1
    20    18    20    1
    21     8    20    1
    22    20    21    1
    23    20    22    1
    24    22    23    1
    25    22    24    1
    26    24    25    1
    27     7    25    1
    28    25    26    1
    29    25    27    1
    30     5    27    1
    31    27    28    1
    32    28    29    2
    33    28    30    1
    34    30    31    1
    35    27    32    1
    36     2    32    1
    37     1    33    1
    38     1    34    1
    39     1    35    1
    40     3    36    1
    41     3    37    1
    42     3    38    1
    43     5    39    1
    44     6    40    1
    45     6    41    1
    46     7    42    1
    47     8    43    1
    48     9    44    1
    49     9    45    1
    50    10    46    1
    51    13    47    1
    52    16    48    1
    53    17    49    1
    54    19    50    1
    55    19    51    1
    56    19    52    1
    57    22    53    1
    58    23    54    1
    59    24    55    1
    60    24    56    1
    61    26    57    1
    62    26    58    1
    63    26    59    1
    64    30    60    1
    65    30    61    1
    66    31    62    1
