@<TRIPOS>MOLECULE
ligand_21
 34 36 0 0 0
SMALL
GASTEIGER

@<TRIPOS>ATOM
      1 C           1.2299    0.4216   -0.0092 C.3     1  UNL1        0.0791
      2 O           2.4665   -0.2690    0.1843 O.3     1  UNL1       -0.4885
      3 C           3.1195    0.2075    1.2931 C.ar    1  UNL1        0.2040
      4 C           2.8005   -0.3150    2.5494 C.ar    1  UNL1        0.1657
      5 O           1.8492   -1.2864    2.6834 O.3     1  UNL1       -0.5031
      6 C           3.4647    0.1121    3.6925 C.ar    1  UNL1        0.0268
      7 C           4.5003    1.0380    3.5718 C.ar    1  UNL1        0.1465
      8 O           5.1478    1.3936    4.7297 O.2     1  UNL1       -0.4544
      9 C           6.1900    2.2986    4.6466 C.ar    1  UNL1        0.1392
     10 C           6.8123    2.6181    5.9388 C.ar    1  UNL1        0.0176
     11 C           7.4043    1.6034    6.7054 C.ar    1  UNL1       -0.0476
     12 C           7.9924    1.8962    7.9397 C.ar    1  UNL1       -0.0195
     13 C           7.9785    3.2052    8.4096 C.ar    1  UNL1        0.1169
     14 O           8.5357    3.5370    9.6084 O.3     1  UNL1       -0.5068
     15 C           7.3895    4.2219    7.6678 C.ar    1  UNL1       -0.0195
     16 C           6.8075    3.9304    6.4323 C.ar    1  UNL1       -0.0476
     17 C           6.6358    2.8478    3.5085 C.ar    1  UNL1        0.0288
     18 C           5.9737    2.4903    2.2457 C.ar    1  UNL1        0.1967
     19 O           6.3411    2.9590    1.1736 O.2     1  UNL1       -0.2869
     20 C           4.8523    1.5428    2.3174 C.ar    1  UNL1        0.1091
     21 C           4.1585    1.1338    1.1694 C.ar    1  UNL1        0.1768
     22 O           4.4650    1.6103   -0.0798 O.3     1  UNL1       -0.5027
     23 H           0.9685    0.3528   -1.0694 H       1  UNL1        0.0660
     24 H           1.2831    1.4814    0.2640 H       1  UNL1        0.0660
     25 H           0.4383   -0.0730    0.5637 H       1  UNL1        0.0660
     26 H           1.6697   -1.6108    1.7801 H       1  UNL1        0.2923
     27 H           3.1958   -0.2947    4.6629 H       1  UNL1        0.0692
     28 H           7.4142    0.5774    6.3430 H       1  UNL1        0.0626
     29 H           8.4492    1.0963    8.5139 H       1  UNL1        0.0654
     30 H           8.9032    2.7351   10.0148 H       1  UNL1        0.2921
     31 H           7.3788    5.2382    8.0519 H       1  UNL1        0.0654
     32 H           6.3389    4.7336    5.8683 H       1  UNL1        0.0626
     33 H           7.4664    3.5402    3.4577 H       1  UNL1        0.0693
     34 H           5.2373    2.2143   -0.0034 H       1  UNL1        0.2923
@<TRIPOS>BOND
     1     1     2    1
     2     2     3    1
     3     3     4   ar
     4     4     5    1
     5     4     6   ar
     6     6     7   ar
     7     7     8   ar
     8     8     9   ar
     9     9    10    1
    10    10    11   ar
    11    11    12   ar
    12    12    13   ar
    13    13    14    1
    14    13    15   ar
    15    15    16   ar
    16    10    16   ar
    17     9    17   ar
    18    17    18   ar
    19    18    19    2
    20    18    20   ar
    21     7    20   ar
    22    20    21   ar
    23     3    21   ar
    24    21    22    1
    25     1    23    1
    26     1    24    1
    27     1    25    1
    28     5    26    1
    29     6    27    1
    30    11    28    1
    31    12    29    1
    32    14    30    1
    33    15    31    1
    34    16    32    1
    35    17    33    1
    36    22    34    1
