@<TRIPOS>MOLECULE
ligand_8
 26 27 0 0 0
SMALL
GASTEIGER

@<TRIPOS>ATOM
      1 C           0.8856   -0.0322   -0.1475 C.3     1  UNL1       -0.0594
      2 C           2.4135   -0.0164   -0.0770 C.3     1  UNL1       -0.0066
      3 C           2.9197   -1.2462    0.6765 C.3     1  UNL1        0.0158
      4 C           4.4290   -1.2694    0.7251 C.2     1  UNL1        0.1673
      5 O           5.0631   -2.3235    0.7641 O.2     1  UNL1       -0.2919
      6 C           5.1573    0.0250    0.7993 C.ar    1  UNL1        0.0644
      7 C           6.5510    0.0437    0.9555 C.ar    1  UNL1        0.1277
      8 O           7.3140   -1.0914    1.0195 O.3     1  UNL1       -0.5061
      9 C           7.2352    1.2511    1.0652 C.ar    1  UNL1       -0.0195
     10 C           6.5337    2.4537    1.0182 C.ar    1  UNL1       -0.0579
     11 C           5.1479    2.4480    0.8541 C.ar    1  UNL1       -0.0552
     12 C           4.4456    1.2358    0.7352 C.ar    1  UNL1       -0.0049
     13 C           2.9432    1.2600    0.5937 C.3     1  UNL1        0.0839
     14 O           2.3505    1.4132    1.8804 O.3     1  UNL1       -0.3869
     15 H           0.5329   -0.9263   -0.6725 H       1  UNL1        0.0233
     16 H           0.5144    0.8431   -0.6906 H       1  UNL1        0.0233
     17 H           0.4321   -0.0316    0.8493 H       1  UNL1        0.0233
     18 H           2.8021   -0.0558   -1.1046 H       1  UNL1        0.0330
     19 H           2.5841   -2.1546    0.1629 H       1  UNL1        0.0349
     20 H           2.5439   -1.2793    1.7057 H       1  UNL1        0.0349
     21 H           6.7132   -1.8664    0.9327 H       1  UNL1        0.2922
     22 H           8.3148    1.2512    1.1934 H       1  UNL1        0.0654
     23 H           7.0692    3.3958    1.1118 H       1  UNL1        0.0619
     24 H           4.6154    3.3977    0.8229 H       1  UNL1        0.0621
     25 H           2.6486    2.1245   -0.0141 H       1  UNL1        0.0646
     26 H           3.0450    1.6200    2.5291 H       1  UNL1        0.2102
@<TRIPOS>BOND
     1     1     2    1
     2     2     3    1
     3     3     4    1
     4     4     5    2
     5     4     6    1
     6     6     7   ar
     7     7     8    1
     8     7     9   ar
     9     9    10   ar
    10    10    11   ar
    11    11    12   ar
    12     6    12   ar
    13    12    13    1
    14     2    13    1
    15    13    14    1
    16     1    15    1
    17     1    16    1
    18     1    17    1
    19     2    18    1
    20     3    19    1
    21     3    20    1
    22     8    21    1
    23     9    22    1
    24    10    23    1
    25    11    24    1
    26    13    25    1
    27    14    26    1
