@<TRIPOS>MOLECULE
ligand_30
 48 50 0 0 0
SMALL
GASTEIGER

@<TRIPOS>ATOM
      1 C           1.3796    0.4665   -0.1782 C.3     1  UNL1        0.0790
      2 O           2.7179    0.6590   -0.6148 O.3     1  UNL1       -0.4915
      3 C           3.1742    1.9402   -0.7649 C.ar    1  UNL1        0.1613
      4 C           4.5554    2.0048   -0.9986 C.ar    1  UNL1       -0.0156
      5 C           5.2246    3.2300   -1.0817 C.ar    1  UNL1       -0.0474
      6 C           4.5128    4.4213   -0.9346 C.ar    1  UNL1        0.0211
      7 C           5.1898    5.6778   -0.5733 C.ar    1  UNL1        0.1395
      8 C           5.7479    5.6968    0.6454 C.ar    1  UNL1        0.0288
      9 C           5.7910    6.9958    1.3218 C.ar    1  UNL1        0.1969
     10 O           6.5072    7.1923    2.2844 O.2     1  UNL1       -0.2869
     11 C           4.8236    7.9761    0.8001 C.ar    1  UNL1        0.1130
     12 C           4.0950    8.8549    1.6035 C.ar    1  UNL1        0.1798
     13 O           4.0264    8.7296    2.9678 O.3     1  UNL1       -0.4905
     14 C           3.5723    7.4346    3.3838 C.3     1  UNL1        0.0790
     15 C           3.3486    9.8717    0.9839 C.ar    1  UNL1        0.2082
     16 O           2.5633   10.7467    1.6944 O.3     1  UNL1       -0.4884
     17 C           1.5011   10.0765    2.3777 C.3     1  UNL1        0.0791
     18 C           3.4070   10.0297   -0.4111 C.ar    1  UNL1        0.2110
     19 O           2.7110   11.0325   -1.0364 O.3     1  UNL1       -0.4883
     20 C           3.4188   12.2706   -0.9818 C.3     1  UNL1        0.0791
     21 C           4.0519    9.0650   -1.1933 C.ar    1  UNL1        0.2088
     22 O           4.1278    9.2014   -2.5545 O.3     1  UNL1       -0.4884
     23 C           5.3183    9.9288   -2.8918 C.3     1  UNL1        0.0791
     24 C           4.6348    7.9611   -0.5782 C.ar    1  UNL1        0.1881
     25 O           4.8990    6.8206   -1.3134 O.2     1  UNL1       -0.4507
     26 C           3.1144    4.3662   -0.7892 C.ar    1  UNL1       -0.0059
     27 C           2.4522    3.1351   -0.6932 C.ar    1  UNL1        0.1591
     28 O           1.1016    3.1410   -0.4765 O.3     1  UNL1       -0.5033
     29 H           1.2430   -0.6047    0.0034 H       1  UNL1        0.0660
     30 H           0.6699    0.7552   -0.9589 H       1  UNL1        0.0660
     31 H           1.1801    0.9787    0.7693 H       1  UNL1        0.0660
     32 H           5.1275    1.0811   -1.0577 H       1  UNL1        0.0655
     33 H           6.3077    3.2386   -1.1786 H       1  UNL1        0.0626
     34 H           5.9473    4.8265    1.2565 H       1  UNL1        0.0693
     35 H           2.9299    7.5640    4.2592 H       1  UNL1        0.0660
     36 H           4.4197    6.8123    3.6836 H       1  UNL1        0.0660
     37 H           2.9821    6.9186    2.6147 H       1  UNL1        0.0660
     38 H           0.6258   10.7327    2.3741 H       1  UNL1        0.0660
     39 H           1.7810    9.9002    3.4208 H       1  UNL1        0.0660
     40 H           1.2104    9.1315    1.9011 H       1  UNL1        0.0660
     41 H           2.7947   13.0140   -0.4778 H       1  UNL1        0.0660
     42 H           3.5874   12.6088   -2.0094 H       1  UNL1        0.0660
     43 H           4.3892   12.2101   -0.4746 H       1  UNL1        0.0660
     44 H           5.0548   10.9590   -3.1511 H       1  UNL1        0.0660
     45 H           5.7737    9.4593   -3.7682 H       1  UNL1        0.0660
     46 H           6.0701    9.9471   -2.0905 H       1  UNL1        0.0660
     47 H           2.5578    5.2919   -0.6604 H       1  UNL1        0.0662
     48 H           0.7690    4.0523   -0.5205 H       1  UNL1        0.2923
@<TRIPOS>BOND
     1     1     2    1
     2     2     3    1
     3     3     4   ar
     4     4     5   ar
     5     5     6   ar
     6     6     7    1
     7     7     8   ar
     8     8     9   ar
     9     9    10    2
    10     9    11   ar
    11    11    12   ar
    12    12    13    1
    13    13    14    1
    14    12    15   ar
    15    15    16    1
    16    16    17    1
    17    15    18   ar
    18    18    19    1
    19    19    20    1
    20    18    21   ar
    21    21    22    1
    22    22    23    1
    23    21    24   ar
    24    11    24   ar
    25    24    25   ar
    26     7    25   ar
    27     6    26   ar
    28    26    27   ar
    29     3    27   ar
    30    27    28    1
    31     1    29    1
    32     1    30    1
    33     1    31    1
    34     4    32    1
    35     5    33    1
    36     8    34    1
    37    14    35    1
    38    14    36    1
    39    14    37    1
    40    17    38    1
    41    17    39    1
    42    17    40    1
    43    20    41    1
    44    20    42    1
    45    20    43    1
    46    23    44    1
    47    23    45    1
    48    23    46    1
    49    26    47    1
    50    28    48    1
