@<TRIPOS>MOLECULE
ligand_38
 34 36 0 0 0
SMALL
GASTEIGER

@<TRIPOS>ATOM
      1 C           1.3520    0.1814   -0.1307 C.3     1  UNL1        0.0788
      2 O           2.7659    0.3677   -0.1612 O.3     1  UNL1       -0.4951
      3 C           3.2077    1.0293   -1.2739 C.ar    1  UNL1        0.1201
      4 C           4.3657    0.5315   -1.8650 C.ar    1  UNL1       -0.0193
      5 C           4.8592    1.1092   -3.0375 C.ar    1  UNL1       -0.0476
      6 C           4.2013    2.1961   -3.6348 C.ar    1  UNL1        0.0176
      7 C           4.5988    2.6973   -4.9665 C.ar    1  UNL1        0.1392
      8 C           4.9023    1.8282   -5.9424 C.ar    1  UNL1        0.0287
      9 C           5.1514    2.3250   -7.2999 C.ar    1  UNL1        0.1931
     10 O           5.5019    1.5672   -8.1948 O.2     1  UNL1       -0.2870
     11 C           4.9078    3.7547   -7.5205 C.ar    1  UNL1        0.0642
     12 C           4.9134    4.2765   -8.8174 C.ar    1  UNL1       -0.0445
     13 C           4.6367    5.6314   -9.0246 C.ar    1  UNL1       -0.0495
     14 C           4.5458    6.1851  -10.4164 C.3     1  UNL1       -0.0397
     15 C           4.3978    6.4551   -7.9144 C.ar    1  UNL1       -0.0553
     16 C           4.3971    5.9257   -6.6177 C.ar    1  UNL1       -0.0184
     17 C           4.6261    4.5645   -6.4231 C.ar    1  UNL1        0.1393
     18 O           4.5236    4.0732   -5.1418 O.2     1  UNL1       -0.4546
     19 C           3.0892    2.7433   -2.9781 C.ar    1  UNL1       -0.0476
     20 C           2.5937    2.1628   -1.8038 C.ar    1  UNL1       -0.0193
     21 H           1.1311   -0.5794    0.6244 H       1  UNL1        0.0660
     22 H           0.9705   -0.1829   -1.0920 H       1  UNL1        0.0660
     23 H           0.8429    1.1034    0.1654 H       1  UNL1        0.0660
     24 H           4.8660   -0.3320   -1.4345 H       1  UNL1        0.0654
     25 H           5.7485    0.6782   -3.4924 H       1  UNL1        0.0626
     26 H           4.9258    0.7539   -5.8159 H       1  UNL1        0.0693
     27 H           5.1056    3.6153   -9.6606 H       1  UNL1        0.0628
     28 H           4.8326    5.4375  -11.1640 H       1  UNL1        0.0278
     29 H           5.2097    7.0466  -10.5322 H       1  UNL1        0.0278
     30 H           3.5154    6.4898  -10.6279 H       1  UNL1        0.0278
     31 H           4.1901    7.5142   -8.0575 H       1  UNL1        0.0621
     32 H           4.1937    6.5737   -5.7692 H       1  UNL1        0.0654
     33 H           2.5719    3.6052   -3.3946 H       1  UNL1        0.0626
     34 H           1.7267    2.6059   -1.3242 H       1  UNL1        0.0654
@<TRIPOS>BOND
     1     1     2    1
     2     2     3    1
     3     3     4   ar
     4     4     5   ar
     5     5     6   ar
     6     6     7    1
     7     7     8   ar
     8     8     9   ar
     9     9    10    2
    10     9    11   ar
    11    11    12   ar
    12    12    13   ar
    13    13    14    1
    14    13    15   ar
    15    15    16   ar
    16    16    17   ar
    17    11    17   ar
    18    17    18   ar
    19     7    18   ar
    20     6    19   ar
    21    19    20   ar
    22     3    20   ar
    23     1    21    1
    24     1    22    1
    25     1    23    1
    26     4    24    1
    27     5    25    1
    28     8    26    1
    29    12    27    1
    30    14    28    1
    31    14    29    1
    32    14    30    1
    33    15    31    1
    34    16    32    1
    35    19    33    1
    36    20    34    1
