@<TRIPOS>MOLECULE
ligand_19
 23 23 0 0 0
SMALL
GASTEIGER

@<TRIPOS>ATOM
      1 C           0.9884   -0.0989   -0.0491 C.3     1  UNL1       -0.0626
      2 C           2.5100   -0.0853    0.0140 C.3     1  UNL1       -0.0255
      3 C           3.0662    1.2941    0.3957 C.3     1  UNL1        0.0799
      4 O           2.5831    1.7067    1.6735 O.3     1  UNL1       -0.3872
      5 C           4.5820    1.3020    0.3833 C.ar    1  UNL1       -0.0189
      6 C           5.3359    0.9728    1.5217 C.ar    1  UNL1       -0.0527
      7 C           6.7329    0.9574    1.4764 C.ar    1  UNL1       -0.0198
      8 C           7.3823    1.2665    0.2869 C.ar    1  UNL1        0.1169
      9 O           8.7428    1.2621    0.1981 O.3     1  UNL1       -0.5068
     10 C           6.6594    1.5900   -0.8534 C.ar    1  UNL1       -0.0198
     11 C           5.2640    1.6065   -0.8069 C.ar    1  UNL1       -0.0527
     12 H           0.6333   -1.0878   -0.3565 H       1  UNL1        0.0231
     13 H           0.6199    0.6341   -0.7736 H       1  UNL1        0.0231
     14 H           0.5461    0.1274    0.9260 H       1  UNL1        0.0231
     15 H           2.9086   -0.3961   -0.9594 H       1  UNL1        0.0291
     16 H           2.8297   -0.8371    0.7468 H       1  UNL1        0.0291
     17 H           2.7068    2.0454   -0.3179 H       1  UNL1        0.0643
     18 H           2.4683    0.9112    2.2177 H       1  UNL1        0.2102
     19 H           4.8402    0.7333    2.4590 H       1  UNL1        0.0622
     20 H           7.2891    0.7050    2.3732 H       1  UNL1        0.0654
     21 H           9.1073    1.0451    1.0715 H       1  UNL1        0.2921
     22 H           7.1794    1.8301   -1.7763 H       1  UNL1        0.0654
     23 H           4.7108    1.8609   -1.7084 H       1  UNL1        0.0622
@<TRIPOS>BOND
     1     1     2    1
     2     2     3    1
     3     3     4    1
     4     3     5    1
     5     5     6   ar
     6     6     7   ar
     7     7     8   ar
     8     8     9    1
     9     8    10   ar
    10    10    11   ar
    11     5    11   ar
    12     1    12    1
    13     1    13    1
    14     1    14    1
    15     2    15    1
    16     2    16    1
    17     3    17    1
    18     4    18    1
    19     6    19    1
    20     7    20    1
    21     9    21    1
    22    10    22    1
    23    11    23    1
