@<TRIPOS>MOLECULE
ligand_1
 70 73 0 0 0
SMALL
GASTEIGER

@<TRIPOS>ATOM
      1 C           0.6459    0.3789   -0.5768 C.3     1  UNL1        0.0394
      2 O           1.0239    1.6870   -0.9835 O.3     1  UNL1       -0.3543
      3 C           2.0342    1.7012   -1.9979 C.3     1  UNL1        0.1646
      4 C           2.6156    3.1215   -2.0824 C.3     1  UNL1        0.0324
      5 C           3.7906    3.0225   -1.1018 C.3     1  UNL1        0.1255
      6 C           3.2514    2.9082    0.3197 C.3     1  UNL1       -0.0161
      7 C           4.3398    3.5265    1.1118 C.3     1  UNL1       -0.0202
      8 C           4.9097    4.6939    0.2551 C.3     1  UNL1        0.0787
      9 O           4.7665    4.1251   -1.0996 O.3     1  UNL1       -0.3610
     10 C           3.9703    5.9746    0.4094 C.3     1  UNL1       -0.0141
     11 C           2.7897    6.0734   -0.5706 C.3     1  UNL1       -0.0598
     12 C           4.6828    7.3303    0.3239 C.3     1  UNL1       -0.0475
     13 C           5.8569    7.4395    1.2901 C.3     1  UNL1       -0.0487
     14 C           6.9317    6.4933    0.7844 C.3     1  UNL1       -0.0245
     15 C           8.4614    6.7274    1.2354 C.3     1  UNL1        0.0056
     16 C           8.6787    8.1118    1.8786 C.3     1  UNL1       -0.0562
     17 C           9.1717    5.7812    2.2671 C.3     1  UNL1       -0.0562
     18 C           9.2443    6.4401   -0.0784 C.3     1  UNL1        0.1084
     19 O           9.4918    7.6089   -0.9154 O.3     1  UNL1       -0.4610
     20 C           8.5102    8.3882   -1.4270 C.2     1  UNL1        0.3042
     21 C           7.9891    7.9017   -2.7381 C.3     1  UNL1        0.0332
     22 O           8.1687    9.4623   -0.9425 O.2     1  UNL1       -0.2512
     23 C           8.6605    5.1965   -0.8353 C.3     1  UNL1       -0.0146
     24 C           7.5848    4.2868   -0.1084 C.3     1  UNL1       -0.0414
     25 C           6.4786    5.0028    0.7652 C.3     1  UNL1        0.0008
     26 C           6.4948    4.5423    2.2655 C.3     1  UNL1       -0.0567
     27 C           4.3151    1.6440   -1.5998 C.3     1  UNL1        0.1907
     28 O           4.9259    1.7531   -2.8961 O.3     1  UNL1       -0.3517
     29 C           4.7729    0.5796   -3.6895 C.3     1  UNL1        0.0395
     30 O           3.1275    0.8285   -1.6709 O.3     1  UNL1       -0.3199
     31 H           1.4492   -0.0882    0.0026 H       1  UNL1        0.0525
     32 H           0.3823   -0.2446   -1.4348 H       1  UNL1        0.0525
     33 H          -0.2260    0.4644    0.0792 H       1  UNL1        0.0525
     34 H           1.5816    1.3891   -2.9445 H       1  UNL1        0.0911
     35 H           1.8698    3.8779   -1.8379 H       1  UNL1        0.0344
     36 H           2.9798    3.3421   -3.0924 H       1  UNL1        0.0344
     37 H           3.0682    1.8833    0.6595 H       1  UNL1        0.0295
     38 H           2.3218    3.4624    0.4714 H       1  UNL1        0.0295
     39 H           5.0959    2.7436    1.2468 H       1  UNL1        0.0294
     40 H           3.9578    3.8217    2.0928 H       1  UNL1        0.0294
     41 H           3.5447    5.9452    1.4210 H       1  UNL1        0.0326
     42 H           3.1085    5.9410   -1.6099 H       1  UNL1        0.0233
     43 H           2.3044    7.0551   -0.5167 H       1  UNL1        0.0233
     44 H           2.0076    5.3559   -0.3274 H       1  UNL1        0.0233
     45 H           3.9760    8.1383    0.5512 H       1  UNL1        0.0269
     46 H           5.0115    7.5109   -0.7108 H       1  UNL1        0.0269
     47 H           5.5558    7.2257    2.3186 H       1  UNL1        0.0268
     48 H           6.1955    8.4793    1.2521 H       1  UNL1        0.0268
     49 H           6.9347    6.7702   -0.2764 H       1  UNL1        0.0313
     50 H           8.1487    8.1580    2.8411 H       1  UNL1        0.0236
     51 H           8.3179    8.9474    1.2873 H       1  UNL1        0.0236
     52 H           9.7377    8.2952    2.0935 H       1  UNL1        0.0236
     53 H           8.8216    5.9270    3.2943 H       1  UNL1        0.0236
     54 H          10.2467    6.0084    2.3188 H       1  UNL1        0.0236
     55 H           9.1243    4.7215    2.0064 H       1  UNL1        0.0236
     56 H          10.2733    6.1648    0.1877 H       1  UNL1        0.0739
     57 H           8.7646    7.3378   -3.2617 H       1  UNL1        0.0342
     58 H           7.7356    8.7661   -3.3590 H       1  UNL1        0.0342
     59 H           7.0976    7.2924   -2.5847 H       1  UNL1        0.0342
     60 H           9.5087    4.5503   -1.1012 H       1  UNL1        0.0301
     61 H           8.2481    5.5045   -1.7984 H       1  UNL1        0.0301
     62 H           8.1214    3.5519    0.5016 H       1  UNL1        0.0273
     63 H           7.1132    3.6918   -0.8979 H       1  UNL1        0.0273
     64 H           7.1783    5.0582    2.9168 H       1  UNL1        0.0236
     65 H           6.7071    3.4744    2.3685 H       1  UNL1        0.0236
     66 H           5.5557    4.7873    2.7698 H       1  UNL1        0.0236
     67 H           5.0390    1.1900   -0.9151 H       1  UNL1        0.0940
     68 H           5.4284    0.6572   -4.5601 H       1  UNL1        0.0525
     69 H           3.7442    0.5113   -4.0630 H       1  UNL1        0.0525
     70 H           5.0278   -0.3246   -3.1285 H       1  UNL1        0.0525
@<TRIPOS>BOND
     1     1     2    1
     2     2     3    1
     3     3     4    1
     4     4     5    1
     5     5     6    1
     6     6     7    1
     7     7     8    1
     8     8     9    1
     9     5     9    1
    10     8    10    1
    11    10    11    1
    12    10    12    1
    13    12    13    1
    14    13    14    1
    15    14    15    1
    16    15    16    1
    17    15    17    1
    18    15    18    1
    19    18    19    1
    20    19    20    1
    21    20    21    1
    22    20    22    2
    23    18    23    1
    24    23    24    1
    25    24    25    1
    26    14    25    1
    27     8    25    1
    28    25    26    1
    29     5    27    1
    30    28    29    1
    31    27    30    1
    32     3    30    1
    33    27    28    1
    34     1    31    1
    35     1    32    1
    36     1    33    1
    37     3    34    1
    38     4    35    1
    39     4    36    1
    40     6    37    1
    41     6    38    1
    42     7    39    1
    43     7    40    1
    44    10    41    1
    45    11    42    1
    46    11    43    1
    47    11    44    1
    48    12    45    1
    49    12    46    1
    50    13    47    1
    51    13    48    1
    52    14    49    1
    53    16    50    1
    54    16    51    1
    55    16    52    1
    56    17    53    1
    57    17    54    1
    58    17    55    1
    59    18    56    1
    60    21    57    1
    61    21    58    1
    62    21    59    1
    63    23    60    1
    64    23    61    1
    65    24    62    1
    66    24    63    1
    67    26    64    1
    68    26    65    1
    69    26    66    1
    70    27    67    1
    71    29    68    1
    72    29    69    1
    73    29    70    1
