@<TRIPOS>MOLECULE
ligand_42
 54 57 0 0 0
SMALL
GASTEIGER

@<TRIPOS>ATOM
      1 C          -0.0486   -3.0912    1.0314 C.3     1  UNL1       -0.0361
      2 C           0.9620   -2.0332    0.6016 C.3     1  UNL1        0.0873
      3 O           1.3076   -2.2849   -0.7625 O.3     1  UNL1       -0.3431
      4 C           2.1251   -1.2723   -1.3535 C.3     1  UNL1        0.1883
      5 O           1.4632   -0.0138   -1.4493 O.3     1  UNL1       -0.3411
      6 C           0.4062    0.1547   -2.4293 C.3     1  UNL1        0.1069
      7 C          -0.8071   -0.7673   -2.2318 C.3     1  UNL1        0.0096
      8 C          -0.5978   -2.1069   -2.8973 C.ar    1  UNL1        0.0384
      9 C          -1.3234   -3.2365   -2.4956 C.ar    1  UNL1        0.1270
     10 O          -2.4128   -3.1654   -1.6734 O.3     1  UNL1       -0.5063
     11 C          -0.9259   -4.5153   -2.8737 C.ar    1  UNL1        0.0218
     12 C           0.1726   -4.6645   -3.7109 C.ar    1  UNL1        0.1238
     13 O           0.6561   -5.9008   -4.0242 O.3     1  UNL1       -0.5065
     14 C           0.8281   -3.5558   -4.2325 C.ar    1  UNL1        0.0221
     15 C           0.4401   -2.2759   -3.8349 C.ar    1  UNL1        0.1317
     16 O           1.2320   -1.2462   -4.3013 O.3     1  UNL1       -0.4811
     17 C           0.7628    0.0558   -3.9349 C.3     1  UNL1        0.1515
     18 C           1.6869    1.1523   -4.4391 C.ar    1  UNL1       -0.0046
     19 C           1.2371    2.0177   -5.4547 C.ar    1  UNL1       -0.0515
     20 C           2.0205    3.0859   -5.8990 C.ar    1  UNL1       -0.0198
     21 C           3.2711    3.2915   -5.3281 C.ar    1  UNL1        0.1169
     22 O           4.0608    4.3345   -5.7117 O.3     1  UNL1       -0.5068
     23 C           3.7489    2.4370   -4.3461 C.ar    1  UNL1       -0.0198
     24 C           2.9661    1.3647   -3.9062 C.ar    1  UNL1       -0.0515
     25 C           3.4531   -1.1924   -0.5644 C.3     1  UNL1        0.1341
     26 O           4.2186   -2.4114   -0.7303 O.3     1  UNL1       -0.3841
     27 C           3.2083   -1.0089    0.9349 C.3     1  UNL1        0.1140
     28 O           4.4468   -1.1370    1.6522 O.3     1  UNL1       -0.3864
     29 C           2.2130   -2.0463    1.4787 C.3     1  UNL1        0.1095
     30 O           1.8500   -1.7523    2.8322 O.3     1  UNL1       -0.3866
     31 H          -0.9975   -2.9283    0.5128 H       1  UNL1        0.0255
     32 H          -0.2537   -3.0566    2.1049 H       1  UNL1        0.0255
     33 H           0.2901   -4.0970    0.7618 H       1  UNL1        0.0255
     34 H           0.4674   -1.0573    0.6893 H       1  UNL1        0.0621
     35 H           2.4176   -1.6177   -2.3438 H       1  UNL1        0.0938
     36 H           0.0545    1.1774   -2.2390 H       1  UNL1        0.0641
     37 H          -1.6950   -0.3085   -2.6852 H       1  UNL1        0.0342
     38 H          -1.0016   -0.8888   -1.1622 H       1  UNL1        0.0342
     39 H          -2.7024   -2.2430   -1.5981 H       1  UNL1        0.2921
     40 H          -1.4633   -5.3740   -2.4852 H       1  UNL1        0.0691
     41 H           0.2383   -6.5492   -3.4321 H       1  UNL1        0.2921
     42 H           1.6785   -3.6900   -4.8945 H       1  UNL1        0.0691
     43 H          -0.1766    0.1966   -4.4933 H       1  UNL1        0.0811
     44 H           0.2575    1.8734   -5.9095 H       1  UNL1        0.0623
     45 H           1.6399    3.7394   -6.6756 H       1  UNL1        0.0654
     46 H           3.5940    4.8454   -6.3918 H       1  UNL1        0.2921
     47 H           4.7329    2.6067   -3.9139 H       1  UNL1        0.0654
     48 H           3.3646    0.7116   -3.1386 H       1  UNL1        0.0623
     49 H           4.0827   -0.3768   -0.9352 H       1  UNL1        0.0671
     50 H           3.5881   -3.1208   -0.9688 H       1  UNL1        0.2101
     51 H           2.8345    0.0007    1.1365 H       1  UNL1        0.0648
     52 H           4.9370   -1.8549    1.1969 H       1  UNL1        0.2100
     53 H           2.6781   -3.0409    1.4718 H       1  UNL1        0.0646
     54 H           2.4103   -1.0147    3.1350 H       1  UNL1        0.2100
@<TRIPOS>BOND
     1     1     2    1
     2     2     3    1
     3     3     4    1
     4     6     7    1
     5     7     8    1
     6     8     9   ar
     7     9    10    1
     8     9    11   ar
     9    11    12   ar
    10    12    13    1
    11    12    14   ar
    12    14    15   ar
    13     8    15   ar
    14    15    16    1
    15    16    17    1
    16     6    17    1
    17    17    18    1
    18    18    19   ar
    19    19    20   ar
    20    20    21   ar
    21    21    22    1
    22    21    23   ar
    23    23    24   ar
    24    18    24   ar
    25     4    25    1
    26    25    26    1
    27    25    27    1
    28    27    28    1
    29    27    29    1
    30     2    29    1
    31    29    30    1
    32     4     5    1
    33     6     5    1
    34     1    31    1
    35     1    32    1
    36     1    33    1
    37     2    34    1
    38     4    35    1
    39     6    36    1
    40     7    37    1
    41     7    38    1
    42    10    39    1
    43    11    40    1
    44    13    41    1
    45    14    42    1
    46    17    43    1
    47    19    44    1
    48    20    45    1
    49    22    46    1
    50    23    47    1
    51    24    48    1
    52    25    49    1
    53    26    50    1
    54    27    51    1
    55    28    52    1
    56    29    53    1
    57    30    54    1
