@<TRIPOS>MOLECULE
ligand_53
 48 51 0 0 0
SMALL
GASTEIGER

@<TRIPOS>ATOM
      1 C           1.0492   -0.1324   -0.0465 C.3     1  UNL1        0.0790
      2 O           2.4627   -0.0015   -0.0765 O.3     1  UNL1       -0.4914
      3 C           2.9948    1.2602   -0.0752 C.ar    1  UNL1        0.1616
      4 C           4.3991    1.2583   -0.0530 C.ar    1  UNL1       -0.0107
      5 C           5.1447    2.4498   -0.0312 C.ar    1  UNL1       -0.0149
      6 C           6.6567    2.3892    0.0575 C.3     1  UNL1        0.0891
      7 O           7.0756    3.1565    1.1969 O.3     1  UNL1       -0.3712
      8 C           7.8112    4.3056    0.7612 C.3     1  UNL1        0.0544
      9 C           7.7615    4.3652   -0.7606 C.3     1  UNL1        0.0205
     10 C           9.1253    4.6143   -1.3878 C.3     1  UNL1        0.0891
     11 C           9.0859    5.3467   -2.7146 C.ar    1  UNL1       -0.0149
     12 C           8.5574    4.7621   -3.8701 C.ar    1  UNL1       -0.0524
     13 C           8.5628    5.4494   -5.0852 C.ar    1  UNL1       -0.0162
     14 C           9.1049    6.7355   -5.1659 C.ar    1  UNL1        0.1585
     15 O           9.0897    7.3630   -6.3811 O.3     1  UNL1       -0.5033
     16 C           9.6419    7.3453   -4.0298 C.ar    1  UNL1        0.1616
     17 O          10.2169    8.5833   -3.9174 O.3     1  UNL1       -0.4914
     18 C          10.3973    9.3464   -5.1013 C.3     1  UNL1        0.0790
     19 C           9.6191    6.6435   -2.8134 C.ar    1  UNL1       -0.0107
     20 O           9.7264    3.3269   -1.5952 O.3     1  UNL1       -0.3712
     21 C           8.7591    2.2991   -1.3539 C.3     1  UNL1        0.0544
     22 C           7.3993    2.9545   -1.1435 C.3     1  UNL1        0.0205
     23 C           4.4468    3.6622   -0.0487 C.ar    1  UNL1       -0.0524
     24 C           3.0511    3.6826   -0.0767 C.ar    1  UNL1       -0.0162
     25 C           2.3268    2.4872   -0.0833 C.ar    1  UNL1        0.1585
     26 O           0.9615    2.5637   -0.0911 O.3     1  UNL1       -0.5033
     27 H           0.8177   -1.2022   -0.0308 H       1  UNL1        0.0660
     28 H           0.5932    0.2823   -0.9508 H       1  UNL1        0.0660
     29 H           0.6266    0.3015    0.8654 H       1  UNL1        0.0660
     30 H           4.9104    0.2972   -0.0276 H       1  UNL1        0.0659
     31 H           6.9513    1.3488    0.2415 H       1  UNL1        0.0650
     32 H           8.8265    4.2251    1.1618 H       1  UNL1        0.0564
     33 H           7.3494    5.1940    1.2047 H       1  UNL1        0.0564
     34 H           7.0099    5.0982   -1.0735 H       1  UNL1        0.0356
     35 H           9.7769    5.1701   -0.7027 H       1  UNL1        0.0650
     36 H           8.1567    3.7525   -3.8461 H       1  UNL1        0.0622
     37 H           8.1481    4.9582   -5.9598 H       1  UNL1        0.0655
     38 H           8.7204    6.7594   -7.0448 H       1  UNL1        0.2923
     39 H          10.9255   10.2644   -4.8244 H       1  UNL1        0.0660
     40 H           9.4351    9.6452   -5.5286 H       1  UNL1        0.0660
     41 H          11.0258    8.8202   -5.8271 H       1  UNL1        0.0660
     42 H          10.0502    7.1220   -1.9358 H       1  UNL1        0.0659
     43 H           9.0992    1.7164   -0.4919 H       1  UNL1        0.0564
     44 H           8.7455    1.6309   -2.2213 H       1  UNL1        0.0564
     45 H           6.8181    2.9003   -2.0705 H       1  UNL1        0.0356
     46 H           4.9782    4.6086   -0.0100 H       1  UNL1        0.0622
     47 H           2.5472    4.6444   -0.0799 H       1  UNL1        0.0655
     48 H           0.6963    3.4935   -0.0067 H       1  UNL1        0.2923
@<TRIPOS>BOND
     1     1     2    1
     2     2     3    1
     3     3     4   ar
     4     4     5   ar
     5     5     6    1
     6     6     7    1
     7     7     8    1
     8     8     9    1
     9     9    10    1
    10    10    11    1
    11    11    12   ar
    12    12    13   ar
    13    13    14   ar
    14    14    15    1
    15    14    16   ar
    16    16    17    1
    17    17    18    1
    18    16    19   ar
    19    11    19   ar
    20    10    20    1
    21    20    21    1
    22    21    22    1
    23     6    22    1
    24     9    22    1
    25     5    23   ar
    26    23    24   ar
    27    24    25   ar
    28     3    25   ar
    29    25    26    1
    30     1    27    1
    31     1    28    1
    32     1    29    1
    33     4    30    1
    34     6    31    1
    35     8    32    1
    36     8    33    1
    37     9    34    1
    38    10    35    1
    39    12    36    1
    40    13    37    1
    41    15    38    1
    42    18    39    1
    43    18    40    1
    44    18    41    1
    45    19    42    1
    46    21    43    1
    47    21    44    1
    48    22    45    1
    49    23    46    1
    50    24    47    1
    51    26    48    1
