@<TRIPOS>MOLECULE
ligand_43
 32 31 0 0 0
SMALL
GASTEIGER

@<TRIPOS>ATOM
      1 C           1.0909   -0.2089    0.2390 C.3     1  UNL1       -0.0653
      2 C           2.6082   -0.2066    0.1213 C.3     1  UNL1       -0.0559
      3 C           3.0439    0.0004   -1.3306 C.3     1  UNL1       -0.0529
      4 C           4.5566    0.1900   -1.4506 C.3     1  UNL1       -0.0471
      5 C           5.0935    0.3025   -2.8962 C.3     1  UNL1       -0.0069
      6 C           4.7202    1.6153   -3.6283 C.3     1  UNL1       -0.0500
      7 C           3.2630    1.7538   -4.0437 C.3     1  UNL1       -0.0649
      8 C           6.6362    0.1777   -2.8468 C.3     1  UNL1        0.0952
      9 O           7.1547    0.1189   -4.1890 O.3     1  UNL1       -0.4645
     10 C           8.4695    0.2394   -4.4803 C.2     1  UNL1        0.3040
     11 C           9.4694    0.2021   -3.3599 C.3     1  UNL1        0.0332
     12 O           8.8421    0.3522   -5.6444 O.2     1  UNL1       -0.2512
     13 H           0.7888   -0.3377    1.2827 H       1  UNL1        0.0230
     14 H           0.6523   -1.0217   -0.3484 H       1  UNL1        0.0230
     15 H           0.6704    0.7369   -0.1194 H       1  UNL1        0.0230
     16 H           3.0071   -1.1534    0.5025 H       1  UNL1        0.0263
     17 H           3.0116    0.5954    0.7504 H       1  UNL1        0.0263
     18 H           2.5236    0.8810   -1.7054 H       1  UNL1        0.0265
     19 H           2.7251   -0.8559   -1.9366 H       1  UNL1        0.0265
     20 H           5.0364   -0.6721   -0.9675 H       1  UNL1        0.0269
     21 H           4.8625    1.0741   -0.8773 H       1  UNL1        0.0269
     22 H           4.7117   -0.5382   -3.4907 H       1  UNL1        0.0333
     23 H           5.3087    1.6841   -4.5513 H       1  UNL1        0.0266
     24 H           5.0082    2.4806   -3.0189 H       1  UNL1        0.0266
     25 H           2.8244    0.7917   -4.3244 H       1  UNL1        0.0230
     26 H           3.1829    2.4244   -4.9060 H       1  UNL1        0.0230
     27 H           2.6644    2.2075   -3.2502 H       1  UNL1        0.0230
     28 H           6.9200   -0.7478   -2.3338 H       1  UNL1        0.0700
     29 H           7.0598    1.0424   -2.3225 H       1  UNL1        0.0700
     30 H           9.0333    0.0839   -2.3697 H       1  UNL1        0.0342
     31 H          10.0414    1.1342   -3.3673 H       1  UNL1        0.0342
     32 H          10.1406   -0.6461   -3.5230 H       1  UNL1        0.0342
@<TRIPOS>BOND
     1     1     2    1
     2     2     3    1
     3     3     4    1
     4     4     5    1
     5     5     6    1
     6     6     7    1
     7     5     8    1
     8     8     9    1
     9     9    10    1
    10    10    11    1
    11    10    12    2
    12     1    13    1
    13     1    14    1
    14     1    15    1
    15     2    16    1
    16     2    17    1
    17     3    18    1
    18     3    19    1
    19     4    20    1
    20     4    21    1
    21     5    22    1
    22     6    23    1
    23     6    24    1
    24     7    25    1
    25     7    26    1
    26     7    27    1
    27     8    28    1
    28     8    29    1
    29    11    30    1
    30    11    31    1
    31    11    32    1
