@<TRIPOS>MOLECULE
ligand_6
 60 62 0 0 0
SMALL
GASTEIGER

@<TRIPOS>ATOM
      1 C           1.0412   -0.1058    0.0072 C.3     1  UNL1        0.0790
      2 O           2.4478   -0.3008   -0.1137 O.3     1  UNL1       -0.4913
      3 C           3.1948    0.2052    0.9196 C.ar    1  UNL1        0.1655
      4 C           2.7847    0.0431    2.2477 C.ar    1  UNL1       -0.0123
      5 C           3.5715    0.4936    3.3282 C.ar    1  UNL1       -0.0320
      6 C           4.8098    1.1237    3.0804 C.ar    1  UNL1        0.0345
      7 C           5.2312    1.2386    1.7334 C.ar    1  UNL1        0.1704
      8 O           6.4465    1.8034    1.4118 O.3     1  UNL1       -0.5028
      9 C           4.4360    0.7929    0.6533 C.ar    1  UNL1        0.2039
     10 O           5.0013    0.9601   -0.5883 O.3     1  UNL1       -0.4885
     11 C           4.1241    1.1411   -1.6893 C.3     1  UNL1        0.0791
     12 C           5.6389    1.6192    4.2097 C.ar    1  UNL1        0.0348
     13 C           6.2187    0.6928    5.1022 C.ar    1  UNL1       -0.0296
     14 C           7.0494    1.1637    6.1305 C.ar    1  UNL1       -0.0122
     15 C           7.3000    2.5240    6.3304 C.ar    1  UNL1        0.1655
     16 O           8.1408    2.7227    7.3966 O.3     1  UNL1       -0.4913
     17 C           8.2562    4.0209    7.9573 C.3     1  UNL1        0.0790
     18 C           6.7363    3.4711    5.4597 C.ar    1  UNL1        0.2041
     19 O           7.1193    4.7698    5.6688 O.3     1  UNL1       -0.4885
     20 C           6.3554    5.8377    5.1341 C.3     1  UNL1        0.0791
     21 C           5.9027    3.0117    4.4057 C.ar    1  UNL1        0.1732
     22 O           5.5096    3.9270    3.4511 O.3     1  UNL1       -0.4907
     23 C           4.0969    4.0517    3.2772 C.3     1  UNL1        0.0790
     24 C           6.0035   -0.8066    5.0026 C.3     1  UNL1        0.0021
     25 C           4.8350   -1.4013    5.8417 C.3     1  UNL1        0.0701
     26 C           4.8472   -0.9078    7.2978 C.3     1  UNL1       -0.0355
     27 O           5.0744   -2.8274    5.9123 O.3     1  UNL1       -0.3882
     28 C           3.4381   -1.2508    5.1592 C.3     1  UNL1       -0.0109
     29 C           2.3015   -1.8236    6.0267 C.3     1  UNL1       -0.0595
     30 C           3.0703    0.1866    4.7293 C.3     1  UNL1       -0.0217
     31 H           0.6023   -0.2247   -0.9881 H       1  UNL1        0.0660
     32 H           0.7987    0.9027    0.3611 H       1  UNL1        0.0660
     33 H           0.5980   -0.8656    0.6581 H       1  UNL1        0.0660
     34 H           1.8619   -0.4867    2.4683 H       1  UNL1        0.0658
     35 H           6.8212    2.2382    2.1955 H       1  UNL1        0.2923
     36 H           4.6881    1.6416   -2.4828 H       1  UNL1        0.0660
     37 H           3.2716    1.7830   -1.4422 H       1  UNL1        0.0660
     38 H           3.7996    0.1743   -2.0852 H       1  UNL1        0.0660
     39 H           7.5256    0.4536    6.8064 H       1  UNL1        0.0658
     40 H           8.7854    3.9190    8.9106 H       1  UNL1        0.0660
     41 H           7.2771    4.4592    8.1757 H       1  UNL1        0.0660
     42 H           8.8665    4.6687    7.3218 H       1  UNL1        0.0660
     43 H           6.6493    6.7492    5.6650 H       1  UNL1        0.0660
     44 H           5.2830    5.7020    5.3021 H       1  UNL1        0.0660
     45 H           6.5943    5.9931    4.0784 H       1  UNL1        0.0660
     46 H           3.8428    5.1150    3.3258 H       1  UNL1        0.0660
     47 H           3.5089    3.5276    4.0375 H       1  UNL1        0.0660
     48 H           3.8263    3.7022    2.2765 H       1  UNL1        0.0660
     49 H           6.9410   -1.2938    5.3105 H       1  UNL1        0.0341
     50 H           5.9110   -1.1219    3.9551 H       1  UNL1        0.0341
     51 H           5.8441   -1.0258    7.7382 H       1  UNL1        0.0257
     52 H           4.1866   -1.5105    7.9305 H       1  UNL1        0.0257
     53 H           4.5469    0.1398    7.3873 H       1  UNL1        0.0257
     54 H           5.9204   -2.9726    6.3707 H       1  UNL1        0.2102
     55 H           3.4548   -1.8946    4.2669 H       1  UNL1        0.0329
     56 H           2.1060   -1.1956    6.9020 H       1  UNL1        0.0233
     57 H           2.5308   -2.8370    6.3716 H       1  UNL1        0.0233
     58 H           1.3723   -1.8804    5.4487 H       1  UNL1        0.0233
     59 H           3.4073    0.9314    5.4576 H       1  UNL1        0.0317
     60 H           1.9779    0.3068    4.7117 H       1  UNL1        0.0317
@<TRIPOS>BOND
     1     1     2    1
     2     2     3    1
     3     3     4   ar
     4     4     5   ar
     5     5     6   ar
     6     6     7   ar
     7     7     8    1
     8     7     9   ar
     9     3     9   ar
    10     9    10    1
    11    10    11    1
    12     6    12    1
    13    12    13   ar
    14    13    14   ar
    15    14    15   ar
    16    15    16    1
    17    16    17    1
    18    15    18   ar
    19    18    19    1
    20    19    20    1
    21    18    21   ar
    22    12    21   ar
    23    21    22    1
    24    22    23    1
    25    13    24    1
    26    24    25    1
    27    25    26    1
    28    25    27    1
    29    25    28    1
    30    28    29    1
    31    28    30    1
    32     5    30    1
    33     1    31    1
    34     1    32    1
    35     1    33    1
    36     4    34    1
    37     8    35    1
    38    11    36    1
    39    11    37    1
    40    11    38    1
    41    14    39    1
    42    17    40    1
    43    17    41    1
    44    17    42    1
    45    20    43    1
    46    20    44    1
    47    20    45    1
    48    23    46    1
    49    23    47    1
    50    23    48    1
    51    24    49    1
    52    24    50    1
    53    26    51    1
    54    26    52    1
    55    26    53    1
    56    27    54    1
    57    28    55    1
    58    29    56    1
    59    29    57    1
    60    29    58    1
    61    30    59    1
    62    30    60    1
