@<TRIPOS>MOLECULE
ligand_27
 28 29 0 0 0
SMALL
GASTEIGER

@<TRIPOS>ATOM
      1 O4          1.0896   -0.1787    0.3711 O.2     1    U1       -0.2677
      2 C4          2.3017   -0.1577    0.1889 C.ar    1    U1        0.2539
      3 C5          3.0473    1.1084    0.1945 C.ar    1    U1        0.0192
      4 C6          4.3624    1.0815   -0.0305 C.ar    1    U1        0.0170
      5 N1          5.0428   -0.0947   -0.2850 N.ar    1    U1       -0.2740
      6 C1*         6.4749   -0.0813   -0.5550 C.3     1    U1        0.1422
      7 C2*         6.8682    0.6505   -1.8324 C.3     1    U1        0.0214
      8 C3*         8.2858    1.0729   -1.5243 C.3     1    U1        0.0876
      9 O3*         9.1742   -0.0040   -1.8400 O.3     1    U1       -0.3890
     10 C4*         8.2526    1.3443   -0.0174 C.3     1    U1        0.1100
     11 C5*         8.0070    2.8134    0.3338 C.3     1    U1        0.0729
     12 O5*         9.0497    3.6525   -0.1398 O.3     1    U1       -0.3924
     13 O4*         7.1675    0.5653    0.5283 O.3     1    U1       -0.3483
     14 C2          4.3892   -1.3223   -0.2930 C.ar    1    U1        0.3313
     15 O2          4.9341   -2.3991   -0.5240 O.2     1    U1       -0.2464
     16 N3          3.0427   -1.2795   -0.0347 N.ar    1    U1       -0.2749
     17 H5          2.4946    2.0183    0.3851 H       1    U1        0.0686
     18 H6          4.9400    1.9999   -0.0227 H       1    U1        0.0813
     19 H1*         6.8642   -1.1052   -0.5947 H       1    U1        0.0840
     20 H2*1        6.2498    1.5406   -1.9927 H       1    U1        0.0335
     21 H2*2        6.7732    0.0055   -2.7114 H       1    U1        0.0335
     22 H3*         8.6067    1.9327   -2.1187 H       1    U1        0.0621
     23 H3*         9.0803   -0.7111   -1.1777 H       1    U1        0.2099
     24 H4*         9.1836    1.0088    0.4539 H       1    U1        0.0646
     25 H5*1        7.9192    2.9368    1.4194 H       1    U1        0.0584
     26 H5*2        7.0633    3.1658   -0.0944 H       1    U1        0.0584
     27 H5*         9.8542    3.4439    0.3677 H       1    U1        0.2095
     28 H3          2.5550   -2.1614   -0.0336 H       1    U1        0.1734
@<TRIPOS>BOND
     1     1     2    2
     2     2     3   ar
     3     3     4   ar
     4     4     5   ar
     5     5     6    1
     6     6     7    1
     7     7     8    1
     8     8     9    1
     9     8    10    1
    10    10    11    1
    11    11    12    1
    12    10    13    1
    13     6    13    1
    14     5    14   ar
    15    14    15    2
    16    14    16   ar
    17     2    16   ar
    18     3    17    1
    19     4    18    1
    20     6    19    1
    21     7    20    1
    22     7    21    1
    23     8    22    1
    24     9    23    1
    25    10    24    1
    26    11    25    1
    27    11    26    1
    28    12    27    1
    29    16    28    1
