@<TRIPOS>MOLECULE
ligand_23
 41 46 0 0 0
SMALL
GASTEIGER

@<TRIPOS>ATOM
      1 C           5.8238   -1.1785    1.2621 C.3     1  UNL1       -0.0116
      2 N           5.4487   -0.9495   -0.1093 N.3     1  UNL1       -0.2909
      3 C           4.0701   -0.6076   -0.3900 C.3     1  UNL1        0.0403
      4 C           3.2183   -1.9789   -0.5250 C.3     1  UNL1       -0.0074
      5 C           4.0840   -3.2692   -0.2109 C.ar    1  UNL1       -0.0372
      6 C           3.6882   -4.2498    0.7078 C.ar    1  UNL1       -0.0126
      7 C           4.7113   -5.0703    1.1763 C.ar    1  UNL1        0.1665
      8 C           6.0034   -5.0304    0.7124 C.ar    1  UNL1        0.1666
      9 C           6.4289   -4.1473   -0.2739 C.ar    1  UNL1       -0.0112
     10 C           5.4575   -3.2374   -0.6728 C.ar    1  UNL1       -0.0230
     11 C           5.7632   -1.8920   -1.2093 C.3     1  UNL1        0.0403
     12 C           6.5151   -1.0524   -2.2157 C.3     1  UNL1       -0.0074
     13 C           5.6399    0.2584   -2.3479 C.ar    1  UNL1       -0.0372
     14 C           6.2803    1.3664   -2.9078 C.ar    1  UNL1       -0.0126
     15 C           5.7928    2.5923   -2.5235 C.ar    1  UNL1        0.1665
     16 C           4.6152    2.7488   -1.8064 C.ar    1  UNL1        0.1666
     17 C           3.8229    1.6917   -1.4057 C.ar    1  UNL1       -0.0112
     18 C           4.3762    0.4135   -1.5621 C.ar    1  UNL1       -0.0230
     19 O           4.4762    4.0338   -1.3492 O.3     1  UNL1       -0.4526
     20 C           5.8216    4.5071   -1.5647 C.3     1  UNL1        0.2332
     21 O           6.5024    3.7615   -2.5922 O.3     1  UNL1       -0.4526
     22 O           6.8497   -5.8267    1.4255 O.3     1  UNL1       -0.4526
     23 C           5.9844   -6.1889    2.5155 C.3     1  UNL1        0.2332
     24 O           4.5906   -5.9114    2.2519 O.3     1  UNL1       -0.4526
     25 H           6.8771   -1.4652    1.3330 H       1  UNL1        0.0391
     26 H           5.2167   -1.9229    1.7826 H       1  UNL1        0.0391
     27 H           5.7183   -0.2423    1.8211 H       1  UNL1        0.0391
     28 H           3.6329   -0.0327    0.4375 H       1  UNL1        0.0516
     29 H           2.7926   -2.0786   -1.5324 H       1  UNL1        0.0332
     30 H           2.3877   -1.9442    0.1899 H       1  UNL1        0.0332
     31 H           2.7078   -4.2691    1.1483 H       1  UNL1        0.0658
     32 H           7.4634   -4.0536   -0.5401 H       1  UNL1        0.0659
     33 H           4.9493   -2.0018   -1.9617 H       1  UNL1        0.0516
     34 H           6.5915   -1.5346   -3.1996 H       1  UNL1        0.0332
     35 H           7.5205   -0.8044   -1.8564 H       1  UNL1        0.0332
     36 H           7.2437    1.2843   -3.3956 H       1  UNL1        0.0658
     37 H           2.9775    1.8751   -0.7530 H       1  UNL1        0.0659
     38 H           6.3862    4.4049   -0.6230 H       1  UNL1        0.1166
     39 H           5.8000    5.5658   -1.8345 H       1  UNL1        0.1166
     40 H           6.2922   -5.6227    3.4073 H       1  UNL1        0.1166
     41 H           6.1052   -7.2564    2.7267 H       1  UNL1        0.1166
@<TRIPOS>BOND
     1     2     3    1
     2     3     4    1
     3     4     5    1
     4     5     6   ar
     5     6     7   ar
     6     7     8   ar
     7     8     9   ar
     8     9    10   ar
     9     5    10   ar
    10    10    11    1
    11     2    11    1
    12    11    12    1
    13    12    13    1
    14    13    14   ar
    15    14    15   ar
    16    15    16   ar
    17    16    17   ar
    18    17    18   ar
    19    13    18   ar
    20     3    18    1
    21    16    19    1
    22    19    20    1
    23    20    21    1
    24    15    21    1
    25     8    22    1
    26    22    23    1
    27    23    24    1
    28     7    24    1
    29     1     2    1
    30     1    25    1
    31     1    26    1
    32     1    27    1
    33     3    28    1
    34     4    29    1
    35     4    30    1
    36     6    31    1
    37     9    32    1
    38    11    33    1
    39    12    34    1
    40    12    35    1
    41    14    36    1
    42    17    37    1
    43    20    38    1
    44    20    39    1
    45    23    40    1
    46    23    41    1
