@<TRIPOS>MOLECULE
ligand_14
 56 59 0 0 0
SMALL
GASTEIGER

@<TRIPOS>ATOM
      1 C           1.0590    0.0112    0.1819 C.3     1  UNL1        0.0817
      2 O           2.4870    0.0021    0.1698 O.3     1  UNL1       -0.4675
      3 C           3.0387   -1.1943   -0.1668 C.2     1  UNL1        0.3132
      4 O           2.3835   -2.2140   -0.3666 O.2     1  UNL1       -0.2502
      5 C           4.5806   -1.1354   -0.2281 C.3     1  UNL1        0.0719
      6 C           5.0592   -1.4470    1.2030 C.3     1  UNL1       -0.0490
      7 C           5.0244    0.3050   -0.5710 C.3     1  UNL1       -0.0371
      8 C           6.5190    0.4599   -0.8042 C.3     1  UNL1       -0.0512
      9 C           7.2146   -0.8000   -1.3032 C.3     1  UNL1       -0.0432
     10 C           6.3352   -1.7162   -2.1892 C.3     1  UNL1        0.0005
     11 C           5.8529   -0.9374   -3.4543 C.3     1  UNL1       -0.0551
     12 C           7.2024   -2.8702   -2.7533 C.ar    1  UNL1       -0.0340
     13 C           8.3993   -2.5429   -3.4338 C.ar    1  UNL1       -0.0148
     14 C           9.1437   -3.5683   -4.0000 C.ar    1  UNL1        0.1353
     15 O          10.2974   -3.3986   -4.7023 O.2     1  UNL1       -0.4629
     16 C          10.7080   -4.6326   -5.0882 C.ar    1  UNL1        0.0931
     17 C           9.8312   -5.5918   -4.6380 C.ar    1  UNL1       -0.0159
     18 C           8.7983   -4.9062   -3.9347 C.ar    1  UNL1        0.0233
     19 C           7.6058   -5.2715   -3.2665 C.ar    1  UNL1       -0.0361
     20 C           7.1911   -6.7171   -3.1661 C.3     1  UNL1       -0.0388
     21 C           6.8071   -4.2246   -2.6859 C.ar    1  UNL1       -0.0365
     22 C           5.4619   -4.5664   -2.0872 C.3     1  UNL1        0.0105
     23 C           5.0385   -3.6487   -0.9414 C.3     1  UNL1        0.1116
     24 O           5.8719   -3.9160    0.2045 O.3     1  UNL1       -0.4609
     25 C           5.5716   -4.8369    1.1555 C.2     1  UNL1        0.3042
     26 C           4.4602   -5.8254    0.9230 C.3     1  UNL1        0.0332
     27 O           6.1983   -4.8565    2.2134 O.2     1  UNL1       -0.2512
     28 C           5.0518   -2.1555   -1.3700 C.3     1  UNL1        0.0213
     29 H           0.7291    1.0022    0.5045 H       1  UNL1        0.0661
     30 H           0.6708   -0.7311    0.8860 H       1  UNL1        0.0661
     31 H           0.6743   -0.1709   -0.8266 H       1  UNL1        0.0661
     32 H           4.8352   -0.6137    1.8814 H       1  UNL1        0.0240
     33 H           6.1378   -1.6163    1.2579 H       1  UNL1        0.0240
     34 H           4.5409   -2.3122    1.6279 H       1  UNL1        0.0240
     35 H           4.7381    1.0075    0.2241 H       1  UNL1        0.0276
     36 H           4.4744    0.6613   -1.4497 H       1  UNL1        0.0276
     37 H           7.0086    0.7834    0.1228 H       1  UNL1        0.0266
     38 H           6.6756    1.2767   -1.5206 H       1  UNL1        0.0266
     39 H           7.5807   -1.3796   -0.4460 H       1  UNL1        0.0274
     40 H           8.1213   -0.4674   -1.8211 H       1  UNL1        0.0274
     41 H           6.6804   -0.4450   -3.9770 H       1  UNL1        0.0238
     42 H           5.1202   -0.1608   -3.2294 H       1  UNL1        0.0238
     43 H           5.3734   -1.6177   -4.1704 H       1  UNL1        0.0238
     44 H           8.7392   -1.5221   -3.5622 H       1  UNL1        0.0657
     45 H          11.6210   -4.6615   -5.6664 H       1  UNL1        0.1029
     46 H           9.9197   -6.6547   -4.8077 H       1  UNL1        0.0655
     47 H           7.8562   -7.3704   -3.7388 H       1  UNL1        0.0278
     48 H           6.1810   -6.8580   -3.5624 H       1  UNL1        0.0278
     49 H           7.2293   -7.0458   -2.1224 H       1  UNL1        0.0278
     50 H           5.4870   -5.5904   -1.7068 H       1  UNL1        0.0349
     51 H           4.7161   -4.5293   -2.8902 H       1  UNL1        0.0349
     52 H           4.0072   -3.8927   -0.6776 H       1  UNL1        0.0740
     53 H           4.0574   -5.8394   -0.0870 H       1  UNL1        0.0342
     54 H           3.6394   -5.6158    1.6142 H       1  UNL1        0.0342
     55 H           4.8509   -6.8309    1.1092 H       1  UNL1        0.0342
     56 H           4.2444   -2.1234   -2.1208 H       1  UNL1        0.0356
@<TRIPOS>BOND
     1     1     2    1
     2     2     3    1
     3     3     4    2
     4     3     5    1
     5     5     6    1
     6     5     7    1
     7     7     8    1
     8     8     9    1
     9     9    10    1
    10    10    11    1
    11    10    12    1
    12    12    13   ar
    13    13    14   ar
    14    14    15   ar
    15    15    16   ar
    16    16    17   ar
    17    17    18   ar
    18    14    18   ar
    19    18    19   ar
    20    19    20    1
    21    19    21   ar
    22    12    21   ar
    23    21    22    1
    24    22    23    1
    25    24    25    1
    26    25    26    1
    27    25    27    2
    28    23    28    1
    29     5    28    1
    30    10    28    1
    31    23    24    1
    32     1    29    1
    33     1    30    1
    34     1    31    1
    35     6    32    1
    36     6    33    1
    37     6    34    1
    38     7    35    1
    39     7    36    1
    40     8    37    1
    41     8    38    1
    42     9    39    1
    43     9    40    1
    44    11    41    1
    45    11    42    1
    46    11    43    1
    47    13    44    1
    48    16    45    1
    49    17    46    1
    50    20    47    1
    51    20    48    1
    52    20    49    1
    53    22    50    1
    54    22    51    1
    55    23    52    1
    56    26    53    1
    57    26    54    1
    58    26    55    1
    59    28    56    1
