@<TRIPOS>MOLECULE
ligand_3
 25 26 0 0 0
SMALL
GASTEIGER

@<TRIPOS>ATOM
      1 C           0.9208    0.0570    0.0939 C.3     1  UNL1       -0.0327
      2 C           2.4255   -0.0099    0.0934 C.ar    1  UNL1        0.0335
      3 C           3.1666   -1.2063    0.0967 C.ar    1  UNL1        0.1296
      4 O           2.5689   -2.4380    0.0966 O.3     1  UNL1       -0.5060
      5 C           4.5764   -1.2027    0.1017 C.ar    1  UNL1        0.0343
      6 C           5.3733   -2.4817    0.1071 C.3     1  UNL1       -0.0327
      7 C           5.2521    0.0287    0.1004 C.ar    1  UNL1        0.1483
      8 O           6.6306   -0.0018    0.1037 O.2     1  UNL1       -0.4622
      9 C           7.3063    1.1930    0.1019 C.ar    1  UNL1        0.0961
     10 C           6.7512    2.4061    0.0976 C.ar    1  UNL1        0.0208
     11 C           5.2850    2.4932    0.0944 C.ar    1  UNL1        0.1960
     12 O           4.7092    3.5761    0.0911 O.2     1  UNL1       -0.2869
     13 C           4.5363    1.2251    0.0954 C.ar    1  UNL1        0.1059
     14 C           3.1361    1.2050    0.0920 C.ar    1  UNL1        0.1376
     15 O           2.4004    2.3670    0.0875 O.3     1  UNL1       -0.5055
     16 H           0.4298   -0.9169    0.1060 H       1  UNL1        0.0280
     17 H           0.5705    0.5789   -0.8034 H       1  UNL1        0.0280
     18 H           0.5718    0.5967    0.9811 H       1  UNL1        0.0280
     19 H           1.6067   -2.3568    0.0475 H       1  UNL1        0.2922
     20 H           4.7463   -3.3776    0.1081 H       1  UNL1        0.0280
     21 H           6.0038   -2.5258    1.0016 H       1  UNL1        0.0280
     22 H           6.0082   -2.5308   -0.7840 H       1  UNL1        0.0280
     23 H           8.3755    1.0246    0.1044 H       1  UNL1        0.1031
     24 H           7.3214    3.3246    0.0965 H       1  UNL1        0.0687
     25 H           3.0212    3.1308    0.0884 H       1  UNL1        0.2922
@<TRIPOS>BOND
     1     1     2    1
     2     2     3   ar
     3     3     4    1
     4     3     5   ar
     5     5     6    1
     6     5     7   ar
     7     7     8   ar
     8     8     9   ar
     9     9    10   ar
    10    10    11   ar
    11    11    12    2
    12    11    13   ar
    13     7    13   ar
    14    13    14   ar
    15     2    14   ar
    16    14    15    1
    17     1    16    1
    18     1    17    1
    19     1    18    1
    20     4    19    1
    21     6    20    1
    22     6    21    1
    23     6    22    1
    24     9    23    1
    25    10    24    1
    26    15    25    1
