@<TRIPOS>MOLECULE
ligand_25
 39 40 0 0 0
SMALL
GASTEIGER

@<TRIPOS>ATOM
      1 C           0.9161   -0.4439    0.0513 C.3     1  UNL1       -0.0621
      2 C           2.4008   -0.1112   -0.1324 C.3     1  UNL1       -0.0401
      3 C           2.6669    0.1972   -1.6116 C.3     1  UNL1       -0.0621
      4 C           2.9366    0.9525    0.8857 C.3     1  UNL1       -0.0140
      5 C           1.9340    2.0292    1.3347 C.3     1  UNL1       -0.0392
      6 C           1.6974    3.0802    0.2696 C.3     1  UNL1        0.0107
      7 C           3.0006    3.6769   -0.2026 C.2     1  UNL1        0.1593
      8 O           3.0326    4.8043   -0.6958 O.2     1  UNL1       -0.2924
      9 C           4.2600    2.8641   -0.0928 C.2     1  UNL1       -0.0029
     10 C           4.2283    1.6218    0.4240 C.2     1  UNL1       -0.0289
     11 C           5.4942    0.8358    0.6344 C.3     1  UNL1        0.1055
     12 O           5.8246    0.9307    2.0337 O.3     1  UNL1       -0.3846
     13 C           6.7465    1.2574   -0.1923 C.3     1  UNL1        0.0932
     14 C           6.9322    0.3193   -1.3939 C.3     1  UNL1       -0.0333
     15 O           7.9280    1.0577    0.6180 O.3     1  UNL1       -0.3860
     16 C           6.7837    2.7228   -0.6619 C.3     1  UNL1       -0.0174
     17 C           5.5022    3.5507   -0.5656 C.3     1  UNL1       -0.0216
     18 H           0.6347   -1.3041   -0.5663 H       1  UNL1        0.0233
     19 H           0.2756    0.3917   -0.2505 H       1  UNL1        0.0233
     20 H           0.6926   -0.6990    1.0918 H       1  UNL1        0.0233
     21 H           2.9498   -1.0399    0.0810 H       1  UNL1        0.0301
     22 H           2.2375    1.1535   -1.9190 H       1  UNL1        0.0233
     23 H           2.2366   -0.5814   -2.2513 H       1  UNL1        0.0233
     24 H           3.7393    0.2149   -1.8255 H       1  UNL1        0.0233
     25 H           3.1625    0.3947    1.8071 H       1  UNL1        0.0349
     26 H           2.3409    2.5263    2.2281 H       1  UNL1        0.0275
     27 H           0.9834    1.5934    1.6583 H       1  UNL1        0.0275
     28 H           1.0857    3.8837    0.6958 H       1  UNL1        0.0345
     29 H           1.1645    2.6722   -0.5930 H       1  UNL1        0.0345
     30 H           5.2979   -0.2268    0.4503 H       1  UNL1        0.0669
     31 H           5.5475    1.8105    2.3450 H       1  UNL1        0.2103
     32 H           6.1053    0.3911   -2.1047 H       1  UNL1        0.0258
     33 H           7.0226   -0.7220   -1.0611 H       1  UNL1        0.0258
     34 H           7.8683    0.5416   -1.9212 H       1  UNL1        0.0258
     35 H           7.5993    0.8895    1.5265 H       1  UNL1        0.2103
     36 H           7.1058    2.7562   -1.7134 H       1  UNL1        0.0297
     37 H           7.5769    3.2684   -0.1332 H       1  UNL1        0.0297
     38 H           5.3118    3.9811   -1.5583 H       1  UNL1        0.0315
     39 H           5.6948    4.4041    0.0982 H       1  UNL1        0.0315
@<TRIPOS>BOND
     1     1     2    1
     2     2     3    1
     3     2     4    1
     4     4     5    1
     5     5     6    1
     6     6     7    1
     7     7     8    2
     8     7     9    1
     9     9    10    2
    10     4    10    1
    11    10    11    1
    12    11    13    1
    13    13    16    1
    14    16    17    1
    15     9    17    1
    16    13    15    1
    17    13    14    1
    18    11    12    1
    19     1    18    1
    20     1    19    1
    21     1    20    1
    22     2    21    1
    23     3    22    1
    24     3    23    1
    25     3    24    1
    26     4    25    1
    27     5    26    1
    28     5    27    1
    29     6    28    1
    30     6    29    1
    31    11    30    1
    32    12    31    1
    33    14    32    1
    34    14    33    1
    35    14    34    1
    36    15    35    1
    37    16    36    1
    38    16    37    1
    39    17    38    1
    40    17    39    1
