@<TRIPOS>MOLECULE
ligand_35
 43 45 0 0 0
SMALL
GASTEIGER

@<TRIPOS>ATOM
      1 C           0.9831   -0.1830   -0.0100 C.3     1  UNL1        0.0788
      2 O           2.3912   -0.2162   -0.2304 O.3     1  UNL1       -0.4951
      3 C           3.1227   -0.7183    0.8099 C.ar    1  UNL1        0.1201
      4 C           4.4122   -0.2120    0.9467 C.ar    1  UNL1       -0.0193
      5 C           5.2230   -0.6082    2.0184 C.ar    1  UNL1       -0.0475
      6 C           4.7561   -1.5070    2.9882 C.ar    1  UNL1        0.0213
      7 C           5.5066   -1.8483    4.2320 C.ar    1  UNL1        0.1808
      8 O           5.1970   -3.1170    4.7115 O.2     1  UNL1       -0.4507
      9 C           5.8299   -3.5825    5.8342 C.ar    1  UNL1        0.1465
     10 C           5.6502   -4.9353    6.1325 C.ar    1  UNL1        0.0233
     11 C           6.2631   -5.5028    7.2512 C.ar    1  UNL1        0.1271
     12 O           6.0357   -6.8413    7.4104 O.3     1  UNL1       -0.4949
     13 C           6.6083   -7.4617    8.5558 C.3     1  UNL1        0.0788
     14 C           7.0472   -4.6994    8.0783 C.ar    1  UNL1        0.0227
     15 C           7.2122   -3.3372    7.7926 C.ar    1  UNL1        0.1380
     16 O           8.0928   -2.6678    8.6011 O.3     1  UNL1       -0.4942
     17 C           7.4464   -1.7626    9.4999 C.3     1  UNL1        0.0788
     18 C           6.6142   -2.7778    6.6541 C.ar    1  UNL1        0.1094
     19 C           6.7856   -1.3752    6.2497 C.ar    1  UNL1        0.2381
     20 O           7.2510   -0.5311    7.0099 O.2     1  UNL1       -0.2830
     21 C           6.3259   -0.9929    4.8815 C.ar    1  UNL1        0.2107
     22 O           6.6518    0.2639    4.3936 O.3     1  UNL1       -0.4883
     23 C           8.0585    0.5150    4.4548 C.3     1  UNL1        0.0791
     24 C           3.4843   -2.0732    2.7793 C.ar    1  UNL1       -0.0475
     25 C           2.6769   -1.6886    1.7012 C.ar    1  UNL1       -0.0193
     26 H           0.5441    0.5010   -0.7427 H       1  UNL1        0.0660
     27 H           0.7344    0.1978    0.9877 H       1  UNL1        0.0660
     28 H           0.5454   -1.1732   -0.1696 H       1  UNL1        0.0660
     29 H           4.7809    0.5247    0.2371 H       1  UNL1        0.0654
     30 H           6.2140   -0.1694    2.0876 H       1  UNL1        0.0626
     31 H           5.0436   -5.5583    5.4788 H       1  UNL1        0.0691
     32 H           6.3475   -8.5240    8.5261 H       1  UNL1        0.0660
     33 H           6.1924   -7.0400    9.4767 H       1  UNL1        0.0660
     34 H           7.7009   -7.3886    8.5447 H       1  UNL1        0.0660
     35 H           7.5618   -5.1024    8.9447 H       1  UNL1        0.0691
     36 H           7.6154   -2.1106   10.5230 H       1  UNL1        0.0660
     37 H           6.3673   -1.6627    9.3344 H       1  UNL1        0.0660
     38 H           7.9192   -0.7800    9.4030 H       1  UNL1        0.0660
     39 H           8.2949    1.2896    3.7199 H       1  UNL1        0.0660
     40 H           8.6450   -0.3771    4.2029 H       1  UNL1        0.0660
     41 H           8.3461    0.8970    5.4381 H       1  UNL1        0.0660
     42 H           3.0837   -2.8067    3.4765 H       1  UNL1        0.0626
     43 H           1.7031   -2.1540    1.5906 H       1  UNL1        0.0654
@<TRIPOS>BOND
     1     1     2    1
     2     2     3    1
     3     3     4   ar
     4     4     5   ar
     5     5     6   ar
     6     6     7    1
     7     7     8   ar
     8     8     9   ar
     9     9    10   ar
    10    10    11   ar
    11    11    12    1
    12    12    13    1
    13    11    14   ar
    14    14    15   ar
    15    15    16    1
    16    16    17    1
    17    15    18   ar
    18     9    18   ar
    19    18    19   ar
    20    19    20    2
    21    19    21   ar
    22     7    21   ar
    23    21    22    1
    24    22    23    1
    25     6    24   ar
    26    24    25   ar
    27     3    25   ar
    28     1    26    1
    29     1    27    1
    30     1    28    1
    31     4    29    1
    32     5    30    1
    33    10    31    1
    34    13    32    1
    35    13    33    1
    36    13    34    1
    37    14    35    1
    38    17    36    1
    39    17    37    1
    40    17    38    1
    41    23    39    1
    42    23    40    1
    43    23    41    1
    44    24    42    1
    45    25    43    1
