@<TRIPOS>MOLECULE
ligand_39
 49 53 0 0 0
SMALL
GASTEIGER

@<TRIPOS>ATOM
      1 C           1.3707    0.2044   -0.5353 C.3     1  UNL1        0.0817
      2 O           2.7936    0.2169   -0.3701 O.3     1  UNL1       -0.4672
      3 C           3.3325   -1.0086   -0.0826 C.2     1  UNL1        0.3214
      4 O           2.7765   -2.0706   -0.3532 O.2     1  UNL1       -0.2497
      5 C           4.5469   -0.8474    0.8493 C.3     1  UNL1        0.1338
      6 C           3.9263   -0.1296    2.0983 C.3     1  UNL1        0.0691
      7 O           4.7527   -0.1454    3.2611 O.3     1  UNL1       -0.3783
      8 C           5.5244    1.0196    3.4424 C.3     1  UNL1        0.0480
      9 C           6.3588    1.3743    2.2397 C.3     1  UNL1       -0.0246
     10 C           6.8014    0.2495    1.3059 C.3     1  UNL1       -0.0148
     11 C           7.3676   -1.1191    1.8690 C.3     1  UNL1        0.0408
     12 C           6.4008   -2.3206    1.7669 C.ar    1  UNL1       -0.0006
     13 C           5.1022   -2.1673    1.3153 C.ar    1  UNL1        0.0413
     14 N           4.5033   -3.3889    1.2113 N.ar    1  UNL1       -0.3567
     15 C           5.4377   -4.3743    1.4130 C.ar    1  UNL1        0.0470
     16 C           5.3145   -5.7587    1.2363 C.ar    1  UNL1       -0.0378
     17 C           6.4554   -6.5395    1.4195 C.ar    1  UNL1       -0.0598
     18 C           7.6669   -5.9533    1.7760 C.ar    1  UNL1       -0.0611
     19 C           7.7680   -4.5657    1.9654 C.ar    1  UNL1       -0.0523
     20 C           6.6339   -3.7451    1.7820 C.ar    1  UNL1        0.0046
     21 N           8.4710   -1.4784    0.9622 N.3     1  UNL1       -0.2981
     22 C           9.7231   -0.8980    1.4474 C.3     1  UNL1       -0.0122
     23 C           8.1690   -1.1569   -0.4548 C.3     1  UNL1       -0.0005
     24 C           6.6462   -0.9593   -0.8416 C.3     1  UNL1       -0.0356
     25 C           5.7927   -0.1051    0.1957 C.3     1  UNL1       -0.0118
     26 H           1.0707    1.1388   -1.0157 H       1  UNL1        0.0661
     27 H           0.9034    0.1671    0.4561 H       1  UNL1        0.0661
     28 H           1.0206   -0.6332   -1.1450 H       1  UNL1        0.0661
     29 H           3.0162   -0.6659    2.3984 H       1  UNL1        0.0575
     30 H           3.6108    0.8959    1.8676 H       1  UNL1        0.0575
     31 H           6.1798    0.8547    4.3032 H       1  UNL1        0.0560
     32 H           4.8685    1.8594    3.7037 H       1  UNL1        0.0560
     33 H           7.2447    1.9222    2.5897 H       1  UNL1        0.0291
     34 H           5.8104    2.1137    1.6366 H       1  UNL1        0.0291
     35 H           7.6187    0.7853    0.7989 H       1  UNL1        0.0323
     36 H           7.6837   -1.0231    2.9147 H       1  UNL1        0.0516
     37 H           3.5742   -3.5491    0.8380 H       1  UNL1        0.1656
     38 H           4.3749   -6.2077    0.9297 H       1  UNL1        0.0638
     39 H           6.3977   -7.6141    1.2624 H       1  UNL1        0.0618
     40 H           8.5510   -6.5755    1.8864 H       1  UNL1        0.0618
     41 H           8.7294   -4.1187    2.1970 H       1  UNL1        0.0624
     42 H           9.9630   -1.3003    2.4407 H       1  UNL1        0.0391
     43 H           9.6726    0.1933    1.5447 H       1  UNL1        0.0391
     44 H          10.5642   -1.1483    0.7955 H       1  UNL1        0.0391
     45 H           8.5917   -1.9547   -1.0773 H       1  UNL1        0.0427
     46 H           8.7021   -0.2421   -0.7499 H       1  UNL1        0.0427
     47 H           6.1924   -1.9385   -1.0318 H       1  UNL1        0.0281
     48 H           6.6265   -0.4420   -1.8093 H       1  UNL1        0.0281
     49 H           5.4450    0.7994   -0.3184 H       1  UNL1        0.0319
@<TRIPOS>BOND
     1     1     2    1
     2     2     3    1
     3     3     4    2
     4     5     6    1
     5     6     7    1
     6     7     8    1
     7     8     9    1
     8     9    10    1
     9    10    11    1
    10    11    12    1
    11    12    13   ar
    12     5    13    1
    13    13    14   ar
    14    14    15   ar
    15    15    16   ar
    16    16    17   ar
    17    17    18   ar
    18    18    19   ar
    19    19    20   ar
    20    12    20   ar
    21    15    20   ar
    22    11    21    1
    23    21    23    1
    24    23    24    1
    25    24    25    1
    26    10    25    1
    27     5    25    1
    28     3     5    1
    29    21    22    1
    30     1    26    1
    31     1    27    1
    32     1    28    1
    33     6    29    1
    34     6    30    1
    35     8    31    1
    36     8    32    1
    37     9    33    1
    38     9    34    1
    39    10    35    1
    40    11    36    1
    41    14    37    1
    42    16    38    1
    43    17    39    1
    44    18    40    1
    45    19    41    1
    46    22    42    1
    47    22    43    1
    48    22    44    1
    49    23    45    1
    50    23    46    1
    51    24    47    1
    52    24    48    1
    53    25    49    1
