@<TRIPOS>MOLECULE
ligand_46
 18 18 0 0 0
SMALL
GASTEIGER

@<TRIPOS>ATOM
      1 C           1.8615    1.5057    0.0030 C.3     1  UNL1       -0.0395
      2 C           0.5859    0.7088    0.0026 C.ar    1  UNL1       -0.0475
      3 C          -0.6454    1.3832    0.0023 C.ar    1  UNL1       -0.0586
      4 C          -1.8472    0.6756    0.0012 C.ar    1  UNL1       -0.0615
      5 C          -1.8336   -0.7151    0.0003 C.ar    1  UNL1       -0.0615
      6 C          -0.6183   -1.3992    0.0011 C.ar    1  UNL1       -0.0586
      7 C           0.5996   -0.7010    0.0026 C.ar    1  UNL1       -0.0475
      8 C           1.8906   -1.4728    0.0049 C.3     1  UNL1       -0.0395
      9 H           1.6630    2.5828    0.0001 H       1  UNL1        0.0278
     10 H           2.4527    1.2778   -0.8895 H       1  UNL1        0.0278
     11 H           2.4496    1.2818    0.8986 H       1  UNL1        0.0278
     12 H          -0.6763    2.4706    0.0029 H       1  UNL1        0.0620
     13 H          -2.7928    1.2109    0.0010 H       1  UNL1        0.0618
     14 H          -2.7686   -1.2687   -0.0008 H       1  UNL1        0.0618
     15 H          -0.6280   -2.4870    0.0007 H       1  UNL1        0.0620
     16 H           1.7131   -2.5536    0.0041 H       1  UNL1        0.0278
     17 H           2.4737   -1.2358    0.9004 H       1  UNL1        0.0278
     18 H           2.4776   -1.2351   -0.8878 H       1  UNL1        0.0278
@<TRIPOS>BOND
     1     1     2    1
     2     2     3   ar
     3     3     4   ar
     4     4     5   ar
     5     5     6   ar
     6     6     7   ar
     7     2     7   ar
     8     7     8    1
     9     1     9    1
    10     1    10    1
    11     1    11    1
    12     3    12    1
    13     4    13    1
    14     5    14    1
    15     6    15    1
    16     8    16    1
    17     8    17    1
    18     8    18    1
