@<TRIPOS>MOLECULE
ligand_0
 24 23 0 0 0
SMALL
GASTEIGER

@<TRIPOS>ATOM
      1 C           1.0231   -0.1814   -0.2704 C.3     0  UNK0        0.0122
      2 C           2.5094   -0.0261   -0.4309 C.2     0  UNK0        0.2106
      3 O           3.0193    0.9548   -0.9625 O.2     0  UNK0       -0.2761
      4 N           3.2388   -1.0618    0.0919 N.am    1  GLU1       -0.3026
      5 CA          4.7018   -1.0905    0.1049 C.3     1  GLU1        0.1207
      6 CB          5.2740   -0.3754    1.3365 C.3     1  GLU1       -0.0140
      7 CG          4.9120    1.1098    1.3970 C.3     1  GLU1        0.0470
      8 CD          5.6030    1.8232    2.5295 C.2     1  GLU1        0.3048
      9 OE1         6.4089    1.3143    3.2918 O.2     1  GLU1       -0.2510
     10 OE2         5.2368    3.1227    2.6124 O.3     1  GLU1       -0.4806
     11 C           5.1258   -2.5682    0.1088 C.2     1  GLU1        0.3253
     12 O           4.3398   -3.4952    0.2685 O.2     1  GLU1       -0.2489
     13 OXT         6.4485   -2.7751   -0.0768 O.3     1  GLU1       -0.4793
     14 H           0.5571    0.8081   -0.2547 H       0  UNK0        0.0322
     15 H           0.7888   -0.6846    0.6725 H       0  UNK0        0.0322
     16 H           0.6232   -0.7622   -1.1043 H       0  UNK0        0.0322
     17 H           2.7648   -1.9087    0.4012 H       1  GLU1        0.1495
     18 HA          5.0622   -0.6339   -0.8243 H       1  GLU1        0.0614
     19 HB1         6.3667   -0.4768    1.3407 H       1  GLU1        0.0294
     20 HB2         4.9244   -0.8714    2.2518 H       1  GLU1        0.0294
     21 HG1         3.8356    1.2252    1.5585 H       1  GLU1        0.0378
     22 HG2         5.2045    1.6028    0.4637 H       1  GLU1        0.0378
     23 HE2         4.5885    3.3902    1.9309 H       1  GLU1        0.2951
     24 HXT         6.9874   -1.9688   -0.1881 H       1  GLU1        0.2951
@<TRIPOS>BOND
     1     1     2    1
     2     2     3    2
     3     2     4   am
     4     4     5    1
     5     5     6    1
     6     6     7    1
     7     7     8    1
     8     8     9    2
     9     8    10    1
    10     5    11    1
    11    11    12    2
    12    11    13    1
    13     1    14    1
    14     1    15    1
    15     1    16    1
    16     4    17    1
    17     5    18    1
    18     6    19    1
    19     6    20    1
    20     7    21    1
    21     7    22    1
    22    10    23    1
    23    13    24    1
