@<TRIPOS>MOLECULE
ligand_33
 41 43 0 0 0
SMALL
GASTEIGER

@<TRIPOS>ATOM
      1 C           4.6977   -3.0795    1.2349 C.3     1  UNL1        0.0037
      2 N           4.3245   -3.9919    0.1709 N.am    1  UNL1       -0.2959
      3 C           4.7069   -5.3208    0.1640 C.2     1  UNL1        0.2450
      4 O           5.2175   -5.9247    1.0921 O.2     1  UNL1       -0.2727
      5 C           4.5461   -5.8721   -1.2525 C.3     1  UNL1        0.1396
      6 O           5.8095   -6.0748   -1.8863 O.3     1  UNL1       -0.3819
      7 C           3.7510   -4.7919   -2.0177 C.3     1  UNL1        0.0400
      8 C           2.3886   -5.2496   -2.5057 C.ar    1  UNL1       -0.0395
      9 C           1.5144   -6.0239   -1.7309 C.ar    1  UNL1       -0.0582
     10 C           0.2850   -6.4477   -2.2442 C.ar    1  UNL1       -0.0615
     11 C          -0.0811   -6.1235   -3.5474 C.ar    1  UNL1       -0.0617
     12 C           0.7780   -5.3669   -4.3369 C.ar    1  UNL1       -0.0615
     13 C           1.9981   -4.9285   -3.8186 C.ar    1  UNL1       -0.0582
     14 C           3.8649   -3.5248   -1.1316 C.3     1  UNL1        0.0654
     15 C           2.6978   -2.4934   -1.1473 C.3     1  UNL1        0.0993
     16 O           3.2156   -1.2447   -0.6391 O.3     1  UNL1       -0.3853
     17 C           1.3689   -2.7590   -0.4592 C.ar    1  UNL1       -0.0174
     18 C           1.1630   -3.7327    0.5249 C.ar    1  UNL1       -0.0561
     19 C          -0.1021   -3.9348    1.0867 C.ar    1  UNL1       -0.0614
     20 C          -1.1749   -3.1343    0.7079 C.ar    1  UNL1       -0.0617
     21 C          -0.9828   -2.1243   -0.2280 C.ar    1  UNL1       -0.0614
     22 C           0.2747   -1.9414   -0.8069 C.ar    1  UNL1       -0.0561
     23 H           5.1287   -3.6231    2.0798 H       1  UNL1        0.0429
     24 H           3.8209   -2.5268    1.5768 H       1  UNL1        0.0429
     25 H           5.4501   -2.3842    0.8495 H       1  UNL1        0.0429
     26 H           4.0410   -6.8408   -1.2026 H       1  UNL1        0.0697
     27 H           6.4907   -5.6713   -1.3178 H       1  UNL1        0.2105
     28 H           4.3190   -4.5697   -2.9342 H       1  UNL1        0.0398
     29 H           1.7674   -6.3128   -0.7139 H       1  UNL1        0.0620
     30 H          -0.3862   -7.0377   -1.6250 H       1  UNL1        0.0618
     31 H          -1.0313   -6.4656   -3.9484 H       1  UNL1        0.0618
     32 H           0.5041   -5.1248   -5.3605 H       1  UNL1        0.0618
     33 H           2.6560   -4.3509   -4.4657 H       1  UNL1        0.0620
     34 H           4.7430   -2.9802   -1.5151 H       1  UNL1        0.0536
     35 H           2.4787   -2.2988   -2.2052 H       1  UNL1        0.0662
     36 H           2.6300   -0.9516    0.0812 H       1  UNL1        0.2103
     37 H           1.9663   -4.3772    0.8645 H       1  UNL1        0.0621
     38 H          -0.2480   -4.7256    1.8187 H       1  UNL1        0.0618
     39 H          -2.1570   -3.2961    1.1437 H       1  UNL1        0.0618
     40 H          -1.8121   -1.4831   -0.5147 H       1  UNL1        0.0618
     41 H           0.4009   -1.1472   -1.5417 H       1  UNL1        0.0621
@<TRIPOS>BOND
     1     1     2    1
     2     2     3   am
     3     3     4    2
     4     3     5    1
     5     5     6    1
     6     5     7    1
     7     8     9   ar
     8     9    10   ar
     9    10    11   ar
    10    11    12   ar
    11    12    13   ar
    12     8    13   ar
    13     7    14    1
    14     2    14    1
    15    15    17    1
    16    17    18   ar
    17    18    19   ar
    18    19    20   ar
    19    20    21   ar
    20    21    22   ar
    21    17    22   ar
    22     7     8    1
    23    15    16    1
    24    15    14    1
    25     1    23    1
    26     1    24    1
    27     1    25    1
    28     5    26    1
    29     6    27    1
    30     7    28    1
    31     9    29    1
    32    10    30    1
    33    11    31    1
    34    12    32    1
    35    13    33    1
    36    14    34    1
    37    15    35    1
    38    16    36    1
    39    18    37    1
    40    19    38    1
    41    20    39    1
    42    21    40    1
    43    22    41    1
