@<TRIPOS>MOLECULE
ligand_17
 18 19 0 0 0
SMALL
GASTEIGER

@<TRIPOS>ATOM
      1 O          -2.3550    1.8378    0.0408 O.2     1  UNL1       -0.2871
      2 C          -1.8513    0.7230    0.0231 C.ar    1  UNL1        0.1925
      3 C          -2.6877   -0.4891    0.0054 C.ar    1  UNL1        0.0207
      4 C          -2.0852   -1.6807   -0.0171 C.ar    1  UNL1        0.0961
      5 O          -0.7283   -1.9003   -0.0267 O.2     1  UNL1       -0.4626
      6 C           0.0947   -0.7990   -0.0094 C.ar    1  UNL1        0.1418
      7 C           1.4703   -1.0334   -0.0199 C.ar    1  UNL1        0.0228
      8 C           2.3425    0.0522   -0.0023 C.ar    1  UNL1        0.1204
      9 O           3.6946   -0.1236   -0.0146 O.3     1  UNL1       -0.5066
     10 C           1.8633    1.3599    0.0277 C.ar    1  UNL1       -0.0193
     11 C           0.4877    1.5939    0.0371 C.ar    1  UNL1       -0.0439
     12 C          -0.3936    0.5092    0.0173 C.ar    1  UNL1        0.0642
     13 H          -3.7617   -0.3639    0.0112 H       1  UNL1        0.0687
     14 H          -2.6221   -2.6204   -0.0307 H       1  UNL1        0.1031
     15 H           1.8394   -2.0534   -0.0414 H       1  UNL1        0.0691
     16 H           3.8909   -1.0744   -0.0501 H       1  UNL1        0.2921
     17 H           2.5598    2.1943    0.0425 H       1  UNL1        0.0654
     18 H           0.1079    2.6129    0.0591 H       1  UNL1        0.0627
@<TRIPOS>BOND
     1     1     2    2
     2     2     3   ar
     3     3     4   ar
     4     4     5   ar
     5     5     6   ar
     6     6     7   ar
     7     7     8   ar
     8     8     9    1
     9     8    10   ar
    10    10    11   ar
    11    11    12   ar
    12     2    12   ar
    13     6    12   ar
    14     3    13    1
    15     4    14    1
    16     7    15    1
    17     9    16    1
    18    10    17    1
    19    11    18    1
