@<TRIPOS>MOLECULE
5Y2O
 45 47 0 0 0
SMALL
USER_CHARGES

@<TRIPOS>ATOM
      1 S1        -47.0960    1.0240   80.6390 S.3     1  8N65011    -0.0542
      2 C2        -46.8960    2.2830   81.6970 C.2     1  8N65011     0.2789
      3 O2        -46.1370    3.2250   81.4960 O.2     1  8N65011    -0.2625
      4 N3        -47.6540    2.1450   82.7930 N.am    1  8N65011    -0.2463
      5 C4        -48.3940    1.0100   82.8000 C.2     1  8N65011     0.2336
      6 O4        -49.1380    0.7650   83.7470 O.2     1  8N65011    -0.2741
      7 C5        -48.2570    0.1310   81.7020 C.3     1  8N65011     0.0945
      8 C6        -47.6670   -1.2090   82.1370 C.3     1  8N65011    -0.0069
      9 C7        -47.6970   -2.1360   81.0810 C.ar    1  8N65011    -0.0456
     10 C8        -46.5930   -2.2760   80.2500 C.ar    1  8N65011    -0.0551
     11 C9        -46.6210   -3.1920   79.2070 C.ar    1  8N65011    -0.0197
     12 C10       -47.7370   -3.9930   78.9800 C.ar    1  8N65011     0.1205
     13 C11       -48.8410   -3.8730   79.8210 C.ar    1  8N65011    -0.0197
     14 C12       -48.8180   -2.9430   80.8640 C.ar    1  8N65011    -0.0551
     15 O13       -47.7050   -4.8810   77.9370 O.3     1  8N65011    -0.4916
     16 C14       -49.0120   -5.2050   77.4240 C.3     1  8N65011     0.0950
     17 C15       -48.8880   -5.8940   76.0420 C.3     1  8N65011     0.0239
     18 C17       -49.0260   -4.9660   74.9940 C.ar    1  8N65011     0.0445
     19 N18       -48.0100   -4.6860   74.1580 N.ar    1  8N65011    -0.2595
     20 C19       -48.1810   -3.7580   73.1030 C.ar    1  8N65011     0.0310
     21 C20       -49.4130   -3.1240   72.9250 C.ar    1  8N65011    -0.0295
     22 C21       -50.4500   -3.4220   73.7970 C.ar    1  8N65011    -0.0555
     23 C22       -50.2550   -4.3450   74.8150 C.ar    1  8N65011    -0.0400
     24 C23       -49.6260   -2.1850   71.9050 C.3     1  8N65011    -0.0291
     25 C24       -50.6270   -2.7190   70.8780 C.3     1  8N65011    -0.0612
     26 H         -47.6716    2.8050   83.5233 H       1  8N65011     0.1583
     27 H         -49.1865   -0.1068   81.2283 H       1  8N65011     0.0515
     28 H         -48.2370   -1.5933   82.9569 H       1  8N65011     0.0329
     29 H         -46.6491   -1.0560   82.4291 H       1  8N65011     0.0329
     30 H         -45.7519   -1.6992   80.4078 H       1  8N65011     0.0621
     31 H         -45.7996   -3.2808   78.5886 H       1  8N65011     0.0654
     32 H         -49.6716   -4.4678   79.6746 H       1  8N65011     0.0654
     33 H         -49.6392   -2.8507   81.4821 H       1  8N65011     0.0621
     34 H         -49.5841   -4.3066   77.3211 H       1  8N65011     0.0700
     35 H         -49.4989   -5.8719   78.1044 H       1  8N65011     0.0700
     36 H         -49.6531   -6.6367   75.9529 H       1  8N65011     0.0361
     37 H         -47.9178   -6.3398   75.9727 H       1  8N65011     0.0361
     38 H         -47.3963   -3.5500   72.4659 H       1  8N65011     0.0832
     39 H         -51.3654   -2.9579   73.6889 H       1  8N65011     0.0621
     40 H         -51.0363   -4.5735   75.4494 H       1  8N65011     0.0636
     41 H         -48.6964   -1.9807   71.4160 H       1  8N65011     0.0311
     42 H         -50.0222   -1.2905   72.3384 H       1  8N65011     0.0311
     43 H         -50.2419   -3.6146   70.4369 H       1  8N65011     0.0233
     44 H         -50.7823   -1.9842   70.1158 H       1  8N65011     0.0233
     45 H         -51.5567   -2.9316   71.3632 H       1  8N65011     0.0233
@<TRIPOS>BOND
     1     1     2    1
     2     2     3    2
     3     2     4   am
     4     4     5   am
     5     5     7    1
     6     5     6    2
     7     1     7    1
     8     7     8    1
     9     8     9    1
    10     9    10   ar
    11     9    14   ar
    12    10    11   ar
    13    11    12   ar
    14    12    15    1
    15    12    13   ar
    16    13    14   ar
    17    15    16    1
    18    16    17    1
    19    17    18    1
    20    18    19   ar
    21    19    20   ar
    22    20    21   ar
    23    21    22   ar
    24    22    23   ar
    25    18    23   ar
    26    21    24    1
    27    24    25    1
    28     4    26    1
    29     7    27    1
    30     8    28    1
    31     8    29    1
    32    10    30    1
    33    11    31    1
    34    13    32    1
    35    14    33    1
    36    16    34    1
    37    16    35    1
    38    17    36    1
    39    17    37    1
    40    20    38    1
    41    22    39    1
    42    23    40    1
    43    24    41    1
    44    24    42    1
    45    25    43    1
    46    25    44    1
    47    25    45    1
